version 2
run Mesh40Nodes-14-20141215-21:42:50-12512
attr configname Mesh40Nodes
attr datetime 20141215-21:42:50
attr experiment Mesh40Nodes
attr inifile pruebawirelessmu.ini
attr iterationvars "$0=1800, $1=500, $2=900"
attr iterationvars2 "$0=1800, $1=500, $2=900, $repetition=0"
attr measurement "$0=1800, $1=500, $2=900"
attr network WirelessNetworkMU
attr processid 12512
attr repetition 0
attr replication #0
attr resultdir results
attr runnumber 14
attr seedset 14

statistic WirelessNetworkMU.node[0].net 	endToEndDelayRTP:stats
field count 0
field mean 0
field stddev -1.#IND
field sum 0
field sqrsum 0
field min 0
field max 0
attr interpolationmode  none
attr source  endToEndDelayRTP
attr title  "end-to-end delay RTP, stats"
attr unit  s
scalar WirelessNetworkMU.node[0].net 	paquetesRecibidosRTP:sum 	0
attr interpolationmode  none
attr source  recibidosRTP
attr title  "Paquetes recibidos RTP, sum"
scalar WirelessNetworkMU.node[0].net 	paquetesEnviadosWAM:sum 	0
attr interpolationmode  none
attr source  enviadosWAM
attr title  "Paquetes enviados WAM, sum"
scalar WirelessNetworkMU.node[0].net 	paquetesEnviadosAMR:sum 	0
attr interpolationmode  none
attr source  enviadosAMR
attr title  "Paquetes enviados AMR, sum"
scalar WirelessNetworkMU.node[0].routing 	forwardedRTP:sum 	0
attr interpolationmode  none
attr source  fwdRTP
attr title  "Forwarded RTP, sum"
scalar WirelessNetworkMU.node[0].routing 	forwardedWAM:sum 	0
attr interpolationmode  none
attr source  fwdWAM
attr title  "Forwarded WAM, sum"
scalar WirelessNetworkMU.node[0].routing 	forwardedAMR:sum 	0
attr interpolationmode  none
attr source  fwdAMR
attr title  "Forwarded AMR, sum"
scalar WirelessNetworkMU.node[0].wlan.mac 	nbTxFrames 	0
scalar WirelessNetworkMU.node[0].wlan.mac 	nbRxFrames 	0
scalar WirelessNetworkMU.node[0].wlan.mac 	nbDroppedFrames 	0
scalar WirelessNetworkMU.node[0].wlan.mac 	nbMissedAcks 	0
scalar WirelessNetworkMU.node[0].wlan.mac 	nbRecvdAcks 	0
scalar WirelessNetworkMU.node[0].wlan.mac 	nbTxAcks 	0
scalar WirelessNetworkMU.node[0].wlan.mac 	nbDuplicates 	0
scalar WirelessNetworkMU.node[0].wlan.mac 	meanBackoff 	0
scalar WirelessNetworkMU.node[0].wlan.mac 	nbBackoffs 	0
scalar WirelessNetworkMU.node[0].wlan.mac 	backoffDurations 	0
scalar WirelessNetworkMU.node[0].wlan.phy 	nbFramesWithInterference 	0
scalar WirelessNetworkMU.node[0].wlan.phy 	nbFramesWithoutInterference 	8
scalar WirelessNetworkMU.node[0].wlan.phy 	nbFramesWithInterferencePartial 	0
scalar WirelessNetworkMU.node[0].wlan.phy 	nbFramesWithoutInterferencePartial 	0
scalar WirelessNetworkMU.node[0].wlan.phy 	nbFramesWithInterferenceDropped 	0
scalar WirelessNetworkMU.node[0].wlan.phy 	nbFramesWithoutInterferenceDropped 	0
scalar WirelessNetworkMU.node[0].batteryStats 	nominal 	1187988120
attr unit  mW-s
scalar WirelessNetworkMU.node[0].batteryStats 	total 	68.174548387527
attr unit  mW-s
scalar WirelessNetworkMU.node[0].batteryStats 	lifetime 	-1
attr unit  s
scalar WirelessNetworkMU.node[0].batteryStats 	"Mean power consumption" 	62.039999941712
attr unit  mW
statistic WirelessNetworkMU.node[1].net 	endToEndDelayRTP:stats
field count 0
field mean 0
field stddev -1.#IND
field sum 0
field sqrsum 0
field min 0
field max 0
attr interpolationmode  none
attr source  endToEndDelayRTP
attr title  "end-to-end delay RTP, stats"
attr unit  s
scalar WirelessNetworkMU.node[1].net 	paquetesRecibidosRTP:sum 	0
attr interpolationmode  none
attr source  recibidosRTP
attr title  "Paquetes recibidos RTP, sum"
scalar WirelessNetworkMU.node[1].net 	paquetesEnviadosWAM:sum 	0
attr interpolationmode  none
attr source  enviadosWAM
attr title  "Paquetes enviados WAM, sum"
scalar WirelessNetworkMU.node[1].net 	paquetesEnviadosAMR:sum 	0
attr interpolationmode  none
attr source  enviadosAMR
attr title  "Paquetes enviados AMR, sum"
scalar WirelessNetworkMU.node[1].routing 	forwardedRTP:sum 	0
attr interpolationmode  none
attr source  fwdRTP
attr title  "Forwarded RTP, sum"
scalar WirelessNetworkMU.node[1].routing 	forwardedWAM:sum 	0
attr interpolationmode  none
attr source  fwdWAM
attr title  "Forwarded WAM, sum"
scalar WirelessNetworkMU.node[1].routing 	forwardedAMR:sum 	0
attr interpolationmode  none
attr source  fwdAMR
attr title  "Forwarded AMR, sum"
scalar WirelessNetworkMU.node[1].wlan.mac 	nbTxFrames 	0
scalar WirelessNetworkMU.node[1].wlan.mac 	nbRxFrames 	0
scalar WirelessNetworkMU.node[1].wlan.mac 	nbDroppedFrames 	0
scalar WirelessNetworkMU.node[1].wlan.mac 	nbMissedAcks 	0
scalar WirelessNetworkMU.node[1].wlan.mac 	nbRecvdAcks 	0
scalar WirelessNetworkMU.node[1].wlan.mac 	nbTxAcks 	0
scalar WirelessNetworkMU.node[1].wlan.mac 	nbDuplicates 	0
scalar WirelessNetworkMU.node[1].wlan.mac 	meanBackoff 	0
scalar WirelessNetworkMU.node[1].wlan.mac 	nbBackoffs 	0
scalar WirelessNetworkMU.node[1].wlan.mac 	backoffDurations 	0
scalar WirelessNetworkMU.node[1].wlan.phy 	nbFramesWithInterference 	0
scalar WirelessNetworkMU.node[1].wlan.phy 	nbFramesWithoutInterference 	8
scalar WirelessNetworkMU.node[1].wlan.phy 	nbFramesWithInterferencePartial 	0
scalar WirelessNetworkMU.node[1].wlan.phy 	nbFramesWithoutInterferencePartial 	0
scalar WirelessNetworkMU.node[1].wlan.phy 	nbFramesWithInterferenceDropped 	0
scalar WirelessNetworkMU.node[1].wlan.phy 	nbFramesWithoutInterferenceDropped 	0
scalar WirelessNetworkMU.node[1].batteryStats 	nominal 	1187988120
attr unit  mW-s
scalar WirelessNetworkMU.node[1].batteryStats 	total 	68.174548387527
attr unit  mW-s
scalar WirelessNetworkMU.node[1].batteryStats 	lifetime 	-1
attr unit  s
scalar WirelessNetworkMU.node[1].batteryStats 	"Mean power consumption" 	62.039999941712
attr unit  mW
statistic WirelessNetworkMU.node[2].net 	endToEndDelayRTP:stats
field count 0
field mean 0
field stddev -1.#IND
field sum 0
field sqrsum 0
field min 0
field max 0
attr interpolationmode  none
attr source  endToEndDelayRTP
attr title  "end-to-end delay RTP, stats"
attr unit  s
scalar WirelessNetworkMU.node[2].net 	paquetesRecibidosRTP:sum 	0
attr interpolationmode  none
attr source  recibidosRTP
attr title  "Paquetes recibidos RTP, sum"
scalar WirelessNetworkMU.node[2].net 	paquetesEnviadosWAM:sum 	0
attr interpolationmode  none
attr source  enviadosWAM
attr title  "Paquetes enviados WAM, sum"
scalar WirelessNetworkMU.node[2].net 	paquetesEnviadosAMR:sum 	0
attr interpolationmode  none
attr source  enviadosAMR
attr title  "Paquetes enviados AMR, sum"
scalar WirelessNetworkMU.node[2].routing 	forwardedRTP:sum 	0
attr interpolationmode  none
attr source  fwdRTP
attr title  "Forwarded RTP, sum"
scalar WirelessNetworkMU.node[2].routing 	forwardedWAM:sum 	0
attr interpolationmode  none
attr source  fwdWAM
attr title  "Forwarded WAM, sum"
scalar WirelessNetworkMU.node[2].routing 	forwardedAMR:sum 	0
attr interpolationmode  none
attr source  fwdAMR
attr title  "Forwarded AMR, sum"
scalar WirelessNetworkMU.node[2].wlan.mac 	nbTxFrames 	0
scalar WirelessNetworkMU.node[2].wlan.mac 	nbRxFrames 	0
scalar WirelessNetworkMU.node[2].wlan.mac 	nbDroppedFrames 	0
scalar WirelessNetworkMU.node[2].wlan.mac 	nbMissedAcks 	0
scalar WirelessNetworkMU.node[2].wlan.mac 	nbRecvdAcks 	0
scalar WirelessNetworkMU.node[2].wlan.mac 	nbTxAcks 	0
scalar WirelessNetworkMU.node[2].wlan.mac 	nbDuplicates 	0
scalar WirelessNetworkMU.node[2].wlan.mac 	meanBackoff 	0
scalar WirelessNetworkMU.node[2].wlan.mac 	nbBackoffs 	0
scalar WirelessNetworkMU.node[2].wlan.mac 	backoffDurations 	0
scalar WirelessNetworkMU.node[2].wlan.phy 	nbFramesWithInterference 	0
scalar WirelessNetworkMU.node[2].wlan.phy 	nbFramesWithoutInterference 	8
scalar WirelessNetworkMU.node[2].wlan.phy 	nbFramesWithInterferencePartial 	0
scalar WirelessNetworkMU.node[2].wlan.phy 	nbFramesWithoutInterferencePartial 	0
scalar WirelessNetworkMU.node[2].wlan.phy 	nbFramesWithInterferenceDropped 	0
scalar WirelessNetworkMU.node[2].wlan.phy 	nbFramesWithoutInterferenceDropped 	0
scalar WirelessNetworkMU.node[2].batteryStats 	nominal 	1187988120
attr unit  mW-s
scalar WirelessNetworkMU.node[2].batteryStats 	total 	68.174548387527
attr unit  mW-s
scalar WirelessNetworkMU.node[2].batteryStats 	lifetime 	-1
attr unit  s
scalar WirelessNetworkMU.node[2].batteryStats 	"Mean power consumption" 	62.039999941712
attr unit  mW
statistic WirelessNetworkMU.node[3].net 	endToEndDelayRTP:stats
field count 0
field mean 0
field stddev -1.#IND
field sum 0
field sqrsum 0
field min 0
field max 0
attr interpolationmode  none
attr source  endToEndDelayRTP
attr title  "end-to-end delay RTP, stats"
attr unit  s
scalar WirelessNetworkMU.node[3].net 	paquetesRecibidosRTP:sum 	0
attr interpolationmode  none
attr source  recibidosRTP
attr title  "Paquetes recibidos RTP, sum"
scalar WirelessNetworkMU.node[3].net 	paquetesEnviadosWAM:sum 	0
attr interpolationmode  none
attr source  enviadosWAM
attr title  "Paquetes enviados WAM, sum"
scalar WirelessNetworkMU.node[3].net 	paquetesEnviadosAMR:sum 	0
attr interpolationmode  none
attr source  enviadosAMR
attr title  "Paquetes enviados AMR, sum"
scalar WirelessNetworkMU.node[3].routing 	forwardedRTP:sum 	0
attr interpolationmode  none
attr source  fwdRTP
attr title  "Forwarded RTP, sum"
scalar WirelessNetworkMU.node[3].routing 	forwardedWAM:sum 	0
attr interpolationmode  none
attr source  fwdWAM
attr title  "Forwarded WAM, sum"
scalar WirelessNetworkMU.node[3].routing 	forwardedAMR:sum 	0
attr interpolationmode  none
attr source  fwdAMR
attr title  "Forwarded AMR, sum"
scalar WirelessNetworkMU.node[3].wlan.mac 	nbTxFrames 	0
scalar WirelessNetworkMU.node[3].wlan.mac 	nbRxFrames 	0
scalar WirelessNetworkMU.node[3].wlan.mac 	nbDroppedFrames 	0
scalar WirelessNetworkMU.node[3].wlan.mac 	nbMissedAcks 	0
scalar WirelessNetworkMU.node[3].wlan.mac 	nbRecvdAcks 	0
scalar WirelessNetworkMU.node[3].wlan.mac 	nbTxAcks 	0
scalar WirelessNetworkMU.node[3].wlan.mac 	nbDuplicates 	0
scalar WirelessNetworkMU.node[3].wlan.mac 	meanBackoff 	0
scalar WirelessNetworkMU.node[3].wlan.mac 	nbBackoffs 	0
scalar WirelessNetworkMU.node[3].wlan.mac 	backoffDurations 	0
scalar WirelessNetworkMU.node[3].wlan.phy 	nbFramesWithInterference 	0
scalar WirelessNetworkMU.node[3].wlan.phy 	nbFramesWithoutInterference 	8
scalar WirelessNetworkMU.node[3].wlan.phy 	nbFramesWithInterferencePartial 	0
scalar WirelessNetworkMU.node[3].wlan.phy 	nbFramesWithoutInterferencePartial 	0
scalar WirelessNetworkMU.node[3].wlan.phy 	nbFramesWithInterferenceDropped 	0
scalar WirelessNetworkMU.node[3].wlan.phy 	nbFramesWithoutInterferenceDropped 	0
scalar WirelessNetworkMU.node[3].batteryStats 	nominal 	1187988120
attr unit  mW-s
scalar WirelessNetworkMU.node[3].batteryStats 	total 	68.174548387527
attr unit  mW-s
scalar WirelessNetworkMU.node[3].batteryStats 	lifetime 	-1
attr unit  s
scalar WirelessNetworkMU.node[3].batteryStats 	"Mean power consumption" 	62.039999941712
attr unit  mW
statistic WirelessNetworkMU.node[4].net 	endToEndDelayRTP:stats
field count 0
field mean 0
field stddev -1.#IND
field sum 0
field sqrsum 0
field min 0
field max 0
attr interpolationmode  none
attr source  endToEndDelayRTP
attr title  "end-to-end delay RTP, stats"
attr unit  s
scalar WirelessNetworkMU.node[4].net 	paquetesRecibidosRTP:sum 	0
attr interpolationmode  none
attr source  recibidosRTP
attr title  "Paquetes recibidos RTP, sum"
scalar WirelessNetworkMU.node[4].net 	paquetesEnviadosWAM:sum 	0
attr interpolationmode  none
attr source  enviadosWAM
attr title  "Paquetes enviados WAM, sum"
scalar WirelessNetworkMU.node[4].net 	paquetesEnviadosAMR:sum 	0
attr interpolationmode  none
attr source  enviadosAMR
attr title  "Paquetes enviados AMR, sum"
scalar WirelessNetworkMU.node[4].routing 	forwardedRTP:sum 	0
attr interpolationmode  none
attr source  fwdRTP
attr title  "Forwarded RTP, sum"
scalar WirelessNetworkMU.node[4].routing 	forwardedWAM:sum 	0
attr interpolationmode  none
attr source  fwdWAM
attr title  "Forwarded WAM, sum"
scalar WirelessNetworkMU.node[4].routing 	forwardedAMR:sum 	0
attr interpolationmode  none
attr source  fwdAMR
attr title  "Forwarded AMR, sum"
scalar WirelessNetworkMU.node[4].wlan.mac 	nbTxFrames 	0
scalar WirelessNetworkMU.node[4].wlan.mac 	nbRxFrames 	0
scalar WirelessNetworkMU.node[4].wlan.mac 	nbDroppedFrames 	0
scalar WirelessNetworkMU.node[4].wlan.mac 	nbMissedAcks 	0
scalar WirelessNetworkMU.node[4].wlan.mac 	nbRecvdAcks 	0
scalar WirelessNetworkMU.node[4].wlan.mac 	nbTxAcks 	0
scalar WirelessNetworkMU.node[4].wlan.mac 	nbDuplicates 	0
scalar WirelessNetworkMU.node[4].wlan.mac 	meanBackoff 	0
scalar WirelessNetworkMU.node[4].wlan.mac 	nbBackoffs 	0
scalar WirelessNetworkMU.node[4].wlan.mac 	backoffDurations 	0
scalar WirelessNetworkMU.node[4].wlan.phy 	nbFramesWithInterference 	0
scalar WirelessNetworkMU.node[4].wlan.phy 	nbFramesWithoutInterference 	8
scalar WirelessNetworkMU.node[4].wlan.phy 	nbFramesWithInterferencePartial 	0
scalar WirelessNetworkMU.node[4].wlan.phy 	nbFramesWithoutInterferencePartial 	0
scalar WirelessNetworkMU.node[4].wlan.phy 	nbFramesWithInterferenceDropped 	0
scalar WirelessNetworkMU.node[4].wlan.phy 	nbFramesWithoutInterferenceDropped 	0
scalar WirelessNetworkMU.node[4].batteryStats 	nominal 	1187988120
attr unit  mW-s
scalar WirelessNetworkMU.node[4].batteryStats 	total 	68.174548387527
attr unit  mW-s
scalar WirelessNetworkMU.node[4].batteryStats 	lifetime 	-1
attr unit  s
scalar WirelessNetworkMU.node[4].batteryStats 	"Mean power consumption" 	62.039999941712
attr unit  mW
statistic WirelessNetworkMU.node[5].net 	endToEndDelayRTP:stats
field count 0
field mean 0
field stddev -1.#IND
field sum 0
field sqrsum 0
field min 0
field max 0
attr interpolationmode  none
attr source  endToEndDelayRTP
attr title  "end-to-end delay RTP, stats"
attr unit  s
scalar WirelessNetworkMU.node[5].net 	paquetesRecibidosRTP:sum 	0
attr interpolationmode  none
attr source  recibidosRTP
attr title  "Paquetes recibidos RTP, sum"
scalar WirelessNetworkMU.node[5].net 	paquetesEnviadosWAM:sum 	0
attr interpolationmode  none
attr source  enviadosWAM
attr title  "Paquetes enviados WAM, sum"
scalar WirelessNetworkMU.node[5].net 	paquetesEnviadosAMR:sum 	0
attr interpolationmode  none
attr source  enviadosAMR
attr title  "Paquetes enviados AMR, sum"
scalar WirelessNetworkMU.node[5].routing 	forwardedRTP:sum 	0
attr interpolationmode  none
attr source  fwdRTP
attr title  "Forwarded RTP, sum"
scalar WirelessNetworkMU.node[5].routing 	forwardedWAM:sum 	0
attr interpolationmode  none
attr source  fwdWAM
attr title  "Forwarded WAM, sum"
scalar WirelessNetworkMU.node[5].routing 	forwardedAMR:sum 	0
attr interpolationmode  none
attr source  fwdAMR
attr title  "Forwarded AMR, sum"
scalar WirelessNetworkMU.node[5].wlan.mac 	nbTxFrames 	0
scalar WirelessNetworkMU.node[5].wlan.mac 	nbRxFrames 	0
scalar WirelessNetworkMU.node[5].wlan.mac 	nbDroppedFrames 	0
scalar WirelessNetworkMU.node[5].wlan.mac 	nbMissedAcks 	0
scalar WirelessNetworkMU.node[5].wlan.mac 	nbRecvdAcks 	0
scalar WirelessNetworkMU.node[5].wlan.mac 	nbTxAcks 	0
scalar WirelessNetworkMU.node[5].wlan.mac 	nbDuplicates 	0
scalar WirelessNetworkMU.node[5].wlan.mac 	meanBackoff 	0
scalar WirelessNetworkMU.node[5].wlan.mac 	nbBackoffs 	0
scalar WirelessNetworkMU.node[5].wlan.mac 	backoffDurations 	0
scalar WirelessNetworkMU.node[5].wlan.phy 	nbFramesWithInterference 	0
scalar WirelessNetworkMU.node[5].wlan.phy 	nbFramesWithoutInterference 	8
scalar WirelessNetworkMU.node[5].wlan.phy 	nbFramesWithInterferencePartial 	0
scalar WirelessNetworkMU.node[5].wlan.phy 	nbFramesWithoutInterferencePartial 	0
scalar WirelessNetworkMU.node[5].wlan.phy 	nbFramesWithInterferenceDropped 	0
scalar WirelessNetworkMU.node[5].wlan.phy 	nbFramesWithoutInterferenceDropped 	0
scalar WirelessNetworkMU.node[5].batteryStats 	nominal 	1187988120
attr unit  mW-s
scalar WirelessNetworkMU.node[5].batteryStats 	total 	68.174548387527
attr unit  mW-s
scalar WirelessNetworkMU.node[5].batteryStats 	lifetime 	-1
attr unit  s
scalar WirelessNetworkMU.node[5].batteryStats 	"Mean power consumption" 	62.039999941712
attr unit  mW
statistic WirelessNetworkMU.node[6].net 	endToEndDelayRTP:stats
field count 0
field mean 0
field stddev -1.#IND
field sum 0
field sqrsum 0
field min 0
field max 0
attr interpolationmode  none
attr source  endToEndDelayRTP
attr title  "end-to-end delay RTP, stats"
attr unit  s
scalar WirelessNetworkMU.node[6].net 	paquetesRecibidosRTP:sum 	0
attr interpolationmode  none
attr source  recibidosRTP
attr title  "Paquetes recibidos RTP, sum"
scalar WirelessNetworkMU.node[6].net 	paquetesEnviadosWAM:sum 	0
attr interpolationmode  none
attr source  enviadosWAM
attr title  "Paquetes enviados WAM, sum"
scalar WirelessNetworkMU.node[6].net 	paquetesEnviadosAMR:sum 	0
attr interpolationmode  none
attr source  enviadosAMR
attr title  "Paquetes enviados AMR, sum"
scalar WirelessNetworkMU.node[6].routing 	forwardedRTP:sum 	0
attr interpolationmode  none
attr source  fwdRTP
attr title  "Forwarded RTP, sum"
scalar WirelessNetworkMU.node[6].routing 	forwardedWAM:sum 	0
attr interpolationmode  none
attr source  fwdWAM
attr title  "Forwarded WAM, sum"
scalar WirelessNetworkMU.node[6].routing 	forwardedAMR:sum 	0
attr interpolationmode  none
attr source  fwdAMR
attr title  "Forwarded AMR, sum"
scalar WirelessNetworkMU.node[6].wlan.mac 	nbTxFrames 	0
scalar WirelessNetworkMU.node[6].wlan.mac 	nbRxFrames 	0
scalar WirelessNetworkMU.node[6].wlan.mac 	nbDroppedFrames 	0
scalar WirelessNetworkMU.node[6].wlan.mac 	nbMissedAcks 	0
scalar WirelessNetworkMU.node[6].wlan.mac 	nbRecvdAcks 	0
scalar WirelessNetworkMU.node[6].wlan.mac 	nbTxAcks 	0
scalar WirelessNetworkMU.node[6].wlan.mac 	nbDuplicates 	0
scalar WirelessNetworkMU.node[6].wlan.mac 	meanBackoff 	0
scalar WirelessNetworkMU.node[6].wlan.mac 	nbBackoffs 	0
scalar WirelessNetworkMU.node[6].wlan.mac 	backoffDurations 	0
scalar WirelessNetworkMU.node[6].wlan.phy 	nbFramesWithInterference 	0
scalar WirelessNetworkMU.node[6].wlan.phy 	nbFramesWithoutInterference 	8
scalar WirelessNetworkMU.node[6].wlan.phy 	nbFramesWithInterferencePartial 	0
scalar WirelessNetworkMU.node[6].wlan.phy 	nbFramesWithoutInterferencePartial 	0
scalar WirelessNetworkMU.node[6].wlan.phy 	nbFramesWithInterferenceDropped 	0
scalar WirelessNetworkMU.node[6].wlan.phy 	nbFramesWithoutInterferenceDropped 	0
scalar WirelessNetworkMU.node[6].batteryStats 	nominal 	1187988120
attr unit  mW-s
scalar WirelessNetworkMU.node[6].batteryStats 	total 	68.174548387527
attr unit  mW-s
scalar WirelessNetworkMU.node[6].batteryStats 	lifetime 	-1
attr unit  s
scalar WirelessNetworkMU.node[6].batteryStats 	"Mean power consumption" 	62.039999941712
attr unit  mW
statistic WirelessNetworkMU.node[7].net 	endToEndDelayRTP:stats
field count 0
field mean 0
field stddev -1.#IND
field sum 0
field sqrsum 0
field min 0
field max 0
attr interpolationmode  none
attr source  endToEndDelayRTP
attr title  "end-to-end delay RTP, stats"
attr unit  s
scalar WirelessNetworkMU.node[7].net 	paquetesRecibidosRTP:sum 	0
attr interpolationmode  none
attr source  recibidosRTP
attr title  "Paquetes recibidos RTP, sum"
scalar WirelessNetworkMU.node[7].net 	paquetesEnviadosWAM:sum 	0
attr interpolationmode  none
attr source  enviadosWAM
attr title  "Paquetes enviados WAM, sum"
scalar WirelessNetworkMU.node[7].net 	paquetesEnviadosAMR:sum 	1
attr interpolationmode  none
attr source  enviadosAMR
attr title  "Paquetes enviados AMR, sum"
scalar WirelessNetworkMU.node[7].routing 	forwardedRTP:sum 	0
attr interpolationmode  none
attr source  fwdRTP
attr title  "Forwarded RTP, sum"
scalar WirelessNetworkMU.node[7].routing 	forwardedWAM:sum 	0
attr interpolationmode  none
attr source  fwdWAM
attr title  "Forwarded WAM, sum"
scalar WirelessNetworkMU.node[7].routing 	forwardedAMR:sum 	0
attr interpolationmode  none
attr source  fwdAMR
attr title  "Forwarded AMR, sum"
scalar WirelessNetworkMU.node[7].wlan.mac 	nbTxFrames 	1
scalar WirelessNetworkMU.node[7].wlan.mac 	nbRxFrames 	0
scalar WirelessNetworkMU.node[7].wlan.mac 	nbDroppedFrames 	0
scalar WirelessNetworkMU.node[7].wlan.mac 	nbMissedAcks 	0
scalar WirelessNetworkMU.node[7].wlan.mac 	nbRecvdAcks 	1
scalar WirelessNetworkMU.node[7].wlan.mac 	nbTxAcks 	0
scalar WirelessNetworkMU.node[7].wlan.mac 	nbDuplicates 	0
scalar WirelessNetworkMU.node[7].wlan.mac 	meanBackoff 	0.00192
scalar WirelessNetworkMU.node[7].wlan.mac 	nbBackoffs 	1
scalar WirelessNetworkMU.node[7].wlan.mac 	backoffDurations 	0.00192
scalar WirelessNetworkMU.node[7].wlan.phy 	nbFramesWithInterference 	0
scalar WirelessNetworkMU.node[7].wlan.phy 	nbFramesWithoutInterference 	7
scalar WirelessNetworkMU.node[7].wlan.phy 	nbFramesWithInterferencePartial 	0
scalar WirelessNetworkMU.node[7].wlan.phy 	nbFramesWithoutInterferencePartial 	0
scalar WirelessNetworkMU.node[7].wlan.phy 	nbFramesWithInterferenceDropped 	0
scalar WirelessNetworkMU.node[7].wlan.phy 	nbFramesWithoutInterferenceDropped 	0
scalar WirelessNetworkMU.node[7].batteryStats 	nominal 	1187988120
attr unit  mW-s
scalar WirelessNetworkMU.node[7].batteryStats 	total 	68.14276266098
attr unit  mW-s
scalar WirelessNetworkMU.node[7].batteryStats 	lifetime 	-1
attr unit  s
scalar WirelessNetworkMU.node[7].batteryStats 	"Mean power consumption" 	62.011074389292
attr unit  mW
statistic WirelessNetworkMU.node[8].net 	endToEndDelayRTP:stats
field count 0
field mean 0
field stddev -1.#IND
field sum 0
field sqrsum 0
field min 0
field max 0
attr interpolationmode  none
attr source  endToEndDelayRTP
attr title  "end-to-end delay RTP, stats"
attr unit  s
scalar WirelessNetworkMU.node[8].net 	paquetesRecibidosRTP:sum 	0
attr interpolationmode  none
attr source  recibidosRTP
attr title  "Paquetes recibidos RTP, sum"
scalar WirelessNetworkMU.node[8].net 	paquetesEnviadosWAM:sum 	0
attr interpolationmode  none
attr source  enviadosWAM
attr title  "Paquetes enviados WAM, sum"
scalar WirelessNetworkMU.node[8].net 	paquetesEnviadosAMR:sum 	0
attr interpolationmode  none
attr source  enviadosAMR
attr title  "Paquetes enviados AMR, sum"
scalar WirelessNetworkMU.node[8].routing 	forwardedRTP:sum 	0
attr interpolationmode  none
attr source  fwdRTP
attr title  "Forwarded RTP, sum"
scalar WirelessNetworkMU.node[8].routing 	forwardedWAM:sum 	0
attr interpolationmode  none
attr source  fwdWAM
attr title  "Forwarded WAM, sum"
scalar WirelessNetworkMU.node[8].routing 	forwardedAMR:sum 	0
attr interpolationmode  none
attr source  fwdAMR
attr title  "Forwarded AMR, sum"
scalar WirelessNetworkMU.node[8].wlan.mac 	nbTxFrames 	0
scalar WirelessNetworkMU.node[8].wlan.mac 	nbRxFrames 	0
scalar WirelessNetworkMU.node[8].wlan.mac 	nbDroppedFrames 	0
scalar WirelessNetworkMU.node[8].wlan.mac 	nbMissedAcks 	0
scalar WirelessNetworkMU.node[8].wlan.mac 	nbRecvdAcks 	0
scalar WirelessNetworkMU.node[8].wlan.mac 	nbTxAcks 	0
scalar WirelessNetworkMU.node[8].wlan.mac 	nbDuplicates 	0
scalar WirelessNetworkMU.node[8].wlan.mac 	meanBackoff 	0
scalar WirelessNetworkMU.node[8].wlan.mac 	nbBackoffs 	0
scalar WirelessNetworkMU.node[8].wlan.mac 	backoffDurations 	0
scalar WirelessNetworkMU.node[8].wlan.phy 	nbFramesWithInterference 	0
scalar WirelessNetworkMU.node[8].wlan.phy 	nbFramesWithoutInterference 	8
scalar WirelessNetworkMU.node[8].wlan.phy 	nbFramesWithInterferencePartial 	0
scalar WirelessNetworkMU.node[8].wlan.phy 	nbFramesWithoutInterferencePartial 	0
scalar WirelessNetworkMU.node[8].wlan.phy 	nbFramesWithInterferenceDropped 	0
scalar WirelessNetworkMU.node[8].wlan.phy 	nbFramesWithoutInterferenceDropped 	0
scalar WirelessNetworkMU.node[8].batteryStats 	nominal 	1187988120
attr unit  mW-s
scalar WirelessNetworkMU.node[8].batteryStats 	total 	68.174548387527
attr unit  mW-s
scalar WirelessNetworkMU.node[8].batteryStats 	lifetime 	-1
attr unit  s
scalar WirelessNetworkMU.node[8].batteryStats 	"Mean power consumption" 	62.039999941712
attr unit  mW
statistic WirelessNetworkMU.node[9].net 	endToEndDelayRTP:stats
field count 0
field mean 0
field stddev -1.#IND
field sum 0
field sqrsum 0
field min 0
field max 0
attr interpolationmode  none
attr source  endToEndDelayRTP
attr title  "end-to-end delay RTP, stats"
attr unit  s
scalar WirelessNetworkMU.node[9].net 	paquetesRecibidosRTP:sum 	0
attr interpolationmode  none
attr source  recibidosRTP
attr title  "Paquetes recibidos RTP, sum"
scalar WirelessNetworkMU.node[9].net 	paquetesEnviadosWAM:sum 	0
attr interpolationmode  none
attr source  enviadosWAM
attr title  "Paquetes enviados WAM, sum"
scalar WirelessNetworkMU.node[9].net 	paquetesEnviadosAMR:sum 	0
attr interpolationmode  none
attr source  enviadosAMR
attr title  "Paquetes enviados AMR, sum"
scalar WirelessNetworkMU.node[9].routing 	forwardedRTP:sum 	0
attr interpolationmode  none
attr source  fwdRTP
attr title  "Forwarded RTP, sum"
scalar WirelessNetworkMU.node[9].routing 	forwardedWAM:sum 	0
attr interpolationmode  none
attr source  fwdWAM
attr title  "Forwarded WAM, sum"
scalar WirelessNetworkMU.node[9].routing 	forwardedAMR:sum 	0
attr interpolationmode  none
attr source  fwdAMR
attr title  "Forwarded AMR, sum"
scalar WirelessNetworkMU.node[9].wlan.mac 	nbTxFrames 	0
scalar WirelessNetworkMU.node[9].wlan.mac 	nbRxFrames 	0
scalar WirelessNetworkMU.node[9].wlan.mac 	nbDroppedFrames 	0
scalar WirelessNetworkMU.node[9].wlan.mac 	nbMissedAcks 	0
scalar WirelessNetworkMU.node[9].wlan.mac 	nbRecvdAcks 	0
scalar WirelessNetworkMU.node[9].wlan.mac 	nbTxAcks 	0
scalar WirelessNetworkMU.node[9].wlan.mac 	nbDuplicates 	0
scalar WirelessNetworkMU.node[9].wlan.mac 	meanBackoff 	0
scalar WirelessNetworkMU.node[9].wlan.mac 	nbBackoffs 	0
scalar WirelessNetworkMU.node[9].wlan.mac 	backoffDurations 	0
scalar WirelessNetworkMU.node[9].wlan.phy 	nbFramesWithInterference 	0
scalar WirelessNetworkMU.node[9].wlan.phy 	nbFramesWithoutInterference 	8
scalar WirelessNetworkMU.node[9].wlan.phy 	nbFramesWithInterferencePartial 	0
scalar WirelessNetworkMU.node[9].wlan.phy 	nbFramesWithoutInterferencePartial 	0
scalar WirelessNetworkMU.node[9].wlan.phy 	nbFramesWithInterferenceDropped 	0
scalar WirelessNetworkMU.node[9].wlan.phy 	nbFramesWithoutInterferenceDropped 	0
scalar WirelessNetworkMU.node[9].batteryStats 	nominal 	1187988120
attr unit  mW-s
scalar WirelessNetworkMU.node[9].batteryStats 	total 	68.174548387527
attr unit  mW-s
scalar WirelessNetworkMU.node[9].batteryStats 	lifetime 	-1
attr unit  s
scalar WirelessNetworkMU.node[9].batteryStats 	"Mean power consumption" 	62.039999941712
attr unit  mW
statistic WirelessNetworkMU.node[10].net 	endToEndDelayRTP:stats
field count 0
field mean 0
field stddev -1.#IND
field sum 0
field sqrsum 0
field min 0
field max 0
attr interpolationmode  none
attr source  endToEndDelayRTP
attr title  "end-to-end delay RTP, stats"
attr unit  s
scalar WirelessNetworkMU.node[10].net 	paquetesRecibidosRTP:sum 	0
attr interpolationmode  none
attr source  recibidosRTP
attr title  "Paquetes recibidos RTP, sum"
scalar WirelessNetworkMU.node[10].net 	paquetesEnviadosWAM:sum 	0
attr interpolationmode  none
attr source  enviadosWAM
attr title  "Paquetes enviados WAM, sum"
scalar WirelessNetworkMU.node[10].net 	paquetesEnviadosAMR:sum 	0
attr interpolationmode  none
attr source  enviadosAMR
attr title  "Paquetes enviados AMR, sum"
scalar WirelessNetworkMU.node[10].routing 	forwardedRTP:sum 	0
attr interpolationmode  none
attr source  fwdRTP
attr title  "Forwarded RTP, sum"
scalar WirelessNetworkMU.node[10].routing 	forwardedWAM:sum 	0
attr interpolationmode  none
attr source  fwdWAM
attr title  "Forwarded WAM, sum"
scalar WirelessNetworkMU.node[10].routing 	forwardedAMR:sum 	0
attr interpolationmode  none
attr source  fwdAMR
attr title  "Forwarded AMR, sum"
scalar WirelessNetworkMU.node[10].wlan.mac 	nbTxFrames 	0
scalar WirelessNetworkMU.node[10].wlan.mac 	nbRxFrames 	0
scalar WirelessNetworkMU.node[10].wlan.mac 	nbDroppedFrames 	0
scalar WirelessNetworkMU.node[10].wlan.mac 	nbMissedAcks 	0
scalar WirelessNetworkMU.node[10].wlan.mac 	nbRecvdAcks 	0
scalar WirelessNetworkMU.node[10].wlan.mac 	nbTxAcks 	0
scalar WirelessNetworkMU.node[10].wlan.mac 	nbDuplicates 	0
scalar WirelessNetworkMU.node[10].wlan.mac 	meanBackoff 	0
scalar WirelessNetworkMU.node[10].wlan.mac 	nbBackoffs 	0
scalar WirelessNetworkMU.node[10].wlan.mac 	backoffDurations 	0
scalar WirelessNetworkMU.node[10].wlan.phy 	nbFramesWithInterference 	0
scalar WirelessNetworkMU.node[10].wlan.phy 	nbFramesWithoutInterference 	8
scalar WirelessNetworkMU.node[10].wlan.phy 	nbFramesWithInterferencePartial 	0
scalar WirelessNetworkMU.node[10].wlan.phy 	nbFramesWithoutInterferencePartial 	0
scalar WirelessNetworkMU.node[10].wlan.phy 	nbFramesWithInterferenceDropped 	0
scalar WirelessNetworkMU.node[10].wlan.phy 	nbFramesWithoutInterferenceDropped 	0
scalar WirelessNetworkMU.node[10].batteryStats 	nominal 	1187988120
attr unit  mW-s
scalar WirelessNetworkMU.node[10].batteryStats 	total 	68.174548387527
attr unit  mW-s
scalar WirelessNetworkMU.node[10].batteryStats 	lifetime 	-1
attr unit  s
scalar WirelessNetworkMU.node[10].batteryStats 	"Mean power consumption" 	62.039999941712
attr unit  mW
statistic WirelessNetworkMU.node[11].net 	endToEndDelayRTP:stats
field count 0
field mean 0
field stddev -1.#IND
field sum 0
field sqrsum 0
field min 0
field max 0
attr interpolationmode  none
attr source  endToEndDelayRTP
attr title  "end-to-end delay RTP, stats"
attr unit  s
scalar WirelessNetworkMU.node[11].net 	paquetesRecibidosRTP:sum 	0
attr interpolationmode  none
attr source  recibidosRTP
attr title  "Paquetes recibidos RTP, sum"
scalar WirelessNetworkMU.node[11].net 	paquetesEnviadosWAM:sum 	0
attr interpolationmode  none
attr source  enviadosWAM
attr title  "Paquetes enviados WAM, sum"
scalar WirelessNetworkMU.node[11].net 	paquetesEnviadosAMR:sum 	0
attr interpolationmode  none
attr source  enviadosAMR
attr title  "Paquetes enviados AMR, sum"
scalar WirelessNetworkMU.node[11].routing 	forwardedRTP:sum 	0
attr interpolationmode  none
attr source  fwdRTP
attr title  "Forwarded RTP, sum"
scalar WirelessNetworkMU.node[11].routing 	forwardedWAM:sum 	0
attr interpolationmode  none
attr source  fwdWAM
attr title  "Forwarded WAM, sum"
scalar WirelessNetworkMU.node[11].routing 	forwardedAMR:sum 	0
attr interpolationmode  none
attr source  fwdAMR
attr title  "Forwarded AMR, sum"
scalar WirelessNetworkMU.node[11].wlan.mac 	nbTxFrames 	0
scalar WirelessNetworkMU.node[11].wlan.mac 	nbRxFrames 	0
scalar WirelessNetworkMU.node[11].wlan.mac 	nbDroppedFrames 	0
scalar WirelessNetworkMU.node[11].wlan.mac 	nbMissedAcks 	0
scalar WirelessNetworkMU.node[11].wlan.mac 	nbRecvdAcks 	0
scalar WirelessNetworkMU.node[11].wlan.mac 	nbTxAcks 	0
scalar WirelessNetworkMU.node[11].wlan.mac 	nbDuplicates 	0
scalar WirelessNetworkMU.node[11].wlan.mac 	meanBackoff 	0
scalar WirelessNetworkMU.node[11].wlan.mac 	nbBackoffs 	0
scalar WirelessNetworkMU.node[11].wlan.mac 	backoffDurations 	0
scalar WirelessNetworkMU.node[11].wlan.phy 	nbFramesWithInterference 	0
scalar WirelessNetworkMU.node[11].wlan.phy 	nbFramesWithoutInterference 	8
scalar WirelessNetworkMU.node[11].wlan.phy 	nbFramesWithInterferencePartial 	0
scalar WirelessNetworkMU.node[11].wlan.phy 	nbFramesWithoutInterferencePartial 	0
scalar WirelessNetworkMU.node[11].wlan.phy 	nbFramesWithInterferenceDropped 	0
scalar WirelessNetworkMU.node[11].wlan.phy 	nbFramesWithoutInterferenceDropped 	0
scalar WirelessNetworkMU.node[11].batteryStats 	nominal 	1187988120
attr unit  mW-s
scalar WirelessNetworkMU.node[11].batteryStats 	total 	68.174548387527
attr unit  mW-s
scalar WirelessNetworkMU.node[11].batteryStats 	lifetime 	-1
attr unit  s
scalar WirelessNetworkMU.node[11].batteryStats 	"Mean power consumption" 	62.039999941712
attr unit  mW
statistic WirelessNetworkMU.node[12].net 	endToEndDelayRTP:stats
field count 0
field mean 0
field stddev -1.#IND
field sum 0
field sqrsum 0
field min 0
field max 0
attr interpolationmode  none
attr source  endToEndDelayRTP
attr title  "end-to-end delay RTP, stats"
attr unit  s
scalar WirelessNetworkMU.node[12].net 	paquetesRecibidosRTP:sum 	0
attr interpolationmode  none
attr source  recibidosRTP
attr title  "Paquetes recibidos RTP, sum"
scalar WirelessNetworkMU.node[12].net 	paquetesEnviadosWAM:sum 	0
attr interpolationmode  none
attr source  enviadosWAM
attr title  "Paquetes enviados WAM, sum"
scalar WirelessNetworkMU.node[12].net 	paquetesEnviadosAMR:sum 	0
attr interpolationmode  none
attr source  enviadosAMR
attr title  "Paquetes enviados AMR, sum"
scalar WirelessNetworkMU.node[12].routing 	forwardedRTP:sum 	0
attr interpolationmode  none
attr source  fwdRTP
attr title  "Forwarded RTP, sum"
scalar WirelessNetworkMU.node[12].routing 	forwardedWAM:sum 	0
attr interpolationmode  none
attr source  fwdWAM
attr title  "Forwarded WAM, sum"
scalar WirelessNetworkMU.node[12].routing 	forwardedAMR:sum 	0
attr interpolationmode  none
attr source  fwdAMR
attr title  "Forwarded AMR, sum"
scalar WirelessNetworkMU.node[12].wlan.mac 	nbTxFrames 	0
scalar WirelessNetworkMU.node[12].wlan.mac 	nbRxFrames 	0
scalar WirelessNetworkMU.node[12].wlan.mac 	nbDroppedFrames 	0
scalar WirelessNetworkMU.node[12].wlan.mac 	nbMissedAcks 	0
scalar WirelessNetworkMU.node[12].wlan.mac 	nbRecvdAcks 	0
scalar WirelessNetworkMU.node[12].wlan.mac 	nbTxAcks 	0
scalar WirelessNetworkMU.node[12].wlan.mac 	nbDuplicates 	0
scalar WirelessNetworkMU.node[12].wlan.mac 	meanBackoff 	0
scalar WirelessNetworkMU.node[12].wlan.mac 	nbBackoffs 	0
scalar WirelessNetworkMU.node[12].wlan.mac 	backoffDurations 	0
scalar WirelessNetworkMU.node[12].wlan.phy 	nbFramesWithInterference 	0
scalar WirelessNetworkMU.node[12].wlan.phy 	nbFramesWithoutInterference 	8
scalar WirelessNetworkMU.node[12].wlan.phy 	nbFramesWithInterferencePartial 	0
scalar WirelessNetworkMU.node[12].wlan.phy 	nbFramesWithoutInterferencePartial 	0
scalar WirelessNetworkMU.node[12].wlan.phy 	nbFramesWithInterferenceDropped 	0
scalar WirelessNetworkMU.node[12].wlan.phy 	nbFramesWithoutInterferenceDropped 	0
scalar WirelessNetworkMU.node[12].batteryStats 	nominal 	1187988120
attr unit  mW-s
scalar WirelessNetworkMU.node[12].batteryStats 	total 	68.174548387527
attr unit  mW-s
scalar WirelessNetworkMU.node[12].batteryStats 	lifetime 	-1
attr unit  s
scalar WirelessNetworkMU.node[12].batteryStats 	"Mean power consumption" 	62.039999941712
attr unit  mW
statistic WirelessNetworkMU.node[13].net 	endToEndDelayRTP:stats
field count 0
field mean 0
field stddev -1.#IND
field sum 0
field sqrsum 0
field min 0
field max 0
attr interpolationmode  none
attr source  endToEndDelayRTP
attr title  "end-to-end delay RTP, stats"
attr unit  s
scalar WirelessNetworkMU.node[13].net 	paquetesRecibidosRTP:sum 	0
attr interpolationmode  none
attr source  recibidosRTP
attr title  "Paquetes recibidos RTP, sum"
scalar WirelessNetworkMU.node[13].net 	paquetesEnviadosWAM:sum 	0
attr interpolationmode  none
attr source  enviadosWAM
attr title  "Paquetes enviados WAM, sum"
scalar WirelessNetworkMU.node[13].net 	paquetesEnviadosAMR:sum 	0
attr interpolationmode  none
attr source  enviadosAMR
attr title  "Paquetes enviados AMR, sum"
scalar WirelessNetworkMU.node[13].routing 	forwardedRTP:sum 	0
attr interpolationmode  none
attr source  fwdRTP
attr title  "Forwarded RTP, sum"
scalar WirelessNetworkMU.node[13].routing 	forwardedWAM:sum 	0
attr interpolationmode  none
attr source  fwdWAM
attr title  "Forwarded WAM, sum"
scalar WirelessNetworkMU.node[13].routing 	forwardedAMR:sum 	0
attr interpolationmode  none
attr source  fwdAMR
attr title  "Forwarded AMR, sum"
scalar WirelessNetworkMU.node[13].wlan.mac 	nbTxFrames 	0
scalar WirelessNetworkMU.node[13].wlan.mac 	nbRxFrames 	0
scalar WirelessNetworkMU.node[13].wlan.mac 	nbDroppedFrames 	0
scalar WirelessNetworkMU.node[13].wlan.mac 	nbMissedAcks 	0
scalar WirelessNetworkMU.node[13].wlan.mac 	nbRecvdAcks 	0
scalar WirelessNetworkMU.node[13].wlan.mac 	nbTxAcks 	0
scalar WirelessNetworkMU.node[13].wlan.mac 	nbDuplicates 	0
scalar WirelessNetworkMU.node[13].wlan.mac 	meanBackoff 	0
scalar WirelessNetworkMU.node[13].wlan.mac 	nbBackoffs 	0
scalar WirelessNetworkMU.node[13].wlan.mac 	backoffDurations 	0
scalar WirelessNetworkMU.node[13].wlan.phy 	nbFramesWithInterference 	0
scalar WirelessNetworkMU.node[13].wlan.phy 	nbFramesWithoutInterference 	8
scalar WirelessNetworkMU.node[13].wlan.phy 	nbFramesWithInterferencePartial 	0
scalar WirelessNetworkMU.node[13].wlan.phy 	nbFramesWithoutInterferencePartial 	0
scalar WirelessNetworkMU.node[13].wlan.phy 	nbFramesWithInterferenceDropped 	0
scalar WirelessNetworkMU.node[13].wlan.phy 	nbFramesWithoutInterferenceDropped 	0
scalar WirelessNetworkMU.node[13].batteryStats 	nominal 	1187988120
attr unit  mW-s
scalar WirelessNetworkMU.node[13].batteryStats 	total 	68.174548387527
attr unit  mW-s
scalar WirelessNetworkMU.node[13].batteryStats 	lifetime 	-1
attr unit  s
scalar WirelessNetworkMU.node[13].batteryStats 	"Mean power consumption" 	62.039999941712
attr unit  mW
statistic WirelessNetworkMU.node[14].net 	endToEndDelayRTP:stats
field count 0
field mean 0
field stddev -1.#IND
field sum 0
field sqrsum 0
field min 0
field max 0
attr interpolationmode  none
attr source  endToEndDelayRTP
attr title  "end-to-end delay RTP, stats"
attr unit  s
scalar WirelessNetworkMU.node[14].net 	paquetesRecibidosRTP:sum 	0
attr interpolationmode  none
attr source  recibidosRTP
attr title  "Paquetes recibidos RTP, sum"
scalar WirelessNetworkMU.node[14].net 	paquetesEnviadosWAM:sum 	0
attr interpolationmode  none
attr source  enviadosWAM
attr title  "Paquetes enviados WAM, sum"
scalar WirelessNetworkMU.node[14].net 	paquetesEnviadosAMR:sum 	0
attr interpolationmode  none
attr source  enviadosAMR
attr title  "Paquetes enviados AMR, sum"
scalar WirelessNetworkMU.node[14].routing 	forwardedRTP:sum 	0
attr interpolationmode  none
attr source  fwdRTP
attr title  "Forwarded RTP, sum"
scalar WirelessNetworkMU.node[14].routing 	forwardedWAM:sum 	0
attr interpolationmode  none
attr source  fwdWAM
attr title  "Forwarded WAM, sum"
scalar WirelessNetworkMU.node[14].routing 	forwardedAMR:sum 	0
attr interpolationmode  none
attr source  fwdAMR
attr title  "Forwarded AMR, sum"
scalar WirelessNetworkMU.node[14].wlan.mac 	nbTxFrames 	0
scalar WirelessNetworkMU.node[14].wlan.mac 	nbRxFrames 	0
scalar WirelessNetworkMU.node[14].wlan.mac 	nbDroppedFrames 	0
scalar WirelessNetworkMU.node[14].wlan.mac 	nbMissedAcks 	0
scalar WirelessNetworkMU.node[14].wlan.mac 	nbRecvdAcks 	0
scalar WirelessNetworkMU.node[14].wlan.mac 	nbTxAcks 	0
scalar WirelessNetworkMU.node[14].wlan.mac 	nbDuplicates 	0
scalar WirelessNetworkMU.node[14].wlan.mac 	meanBackoff 	0
scalar WirelessNetworkMU.node[14].wlan.mac 	nbBackoffs 	0
scalar WirelessNetworkMU.node[14].wlan.mac 	backoffDurations 	0
scalar WirelessNetworkMU.node[14].wlan.phy 	nbFramesWithInterference 	0
scalar WirelessNetworkMU.node[14].wlan.phy 	nbFramesWithoutInterference 	8
scalar WirelessNetworkMU.node[14].wlan.phy 	nbFramesWithInterferencePartial 	0
scalar WirelessNetworkMU.node[14].wlan.phy 	nbFramesWithoutInterferencePartial 	0
scalar WirelessNetworkMU.node[14].wlan.phy 	nbFramesWithInterferenceDropped 	0
scalar WirelessNetworkMU.node[14].wlan.phy 	nbFramesWithoutInterferenceDropped 	0
scalar WirelessNetworkMU.node[14].batteryStats 	nominal 	1187988120
attr unit  mW-s
scalar WirelessNetworkMU.node[14].batteryStats 	total 	68.174548387527
attr unit  mW-s
scalar WirelessNetworkMU.node[14].batteryStats 	lifetime 	-1
attr unit  s
scalar WirelessNetworkMU.node[14].batteryStats 	"Mean power consumption" 	62.039999941712
attr unit  mW
statistic WirelessNetworkMU.node[15].net 	endToEndDelayRTP:stats
field count 0
field mean 0
field stddev -1.#IND
field sum 0
field sqrsum 0
field min 0
field max 0
attr interpolationmode  none
attr source  endToEndDelayRTP
attr title  "end-to-end delay RTP, stats"
attr unit  s
scalar WirelessNetworkMU.node[15].net 	paquetesRecibidosRTP:sum 	0
attr interpolationmode  none
attr source  recibidosRTP
attr title  "Paquetes recibidos RTP, sum"
scalar WirelessNetworkMU.node[15].net 	paquetesEnviadosWAM:sum 	0
attr interpolationmode  none
attr source  enviadosWAM
attr title  "Paquetes enviados WAM, sum"
scalar WirelessNetworkMU.node[15].net 	paquetesEnviadosAMR:sum 	0
attr interpolationmode  none
attr source  enviadosAMR
attr title  "Paquetes enviados AMR, sum"
scalar WirelessNetworkMU.node[15].routing 	forwardedRTP:sum 	0
attr interpolationmode  none
attr source  fwdRTP
attr title  "Forwarded RTP, sum"
scalar WirelessNetworkMU.node[15].routing 	forwardedWAM:sum 	0
attr interpolationmode  none
attr source  fwdWAM
attr title  "Forwarded WAM, sum"
scalar WirelessNetworkMU.node[15].routing 	forwardedAMR:sum 	0
attr interpolationmode  none
attr source  fwdAMR
attr title  "Forwarded AMR, sum"
scalar WirelessNetworkMU.node[15].wlan.mac 	nbTxFrames 	0
scalar WirelessNetworkMU.node[15].wlan.mac 	nbRxFrames 	0
scalar WirelessNetworkMU.node[15].wlan.mac 	nbDroppedFrames 	0
scalar WirelessNetworkMU.node[15].wlan.mac 	nbMissedAcks 	0
scalar WirelessNetworkMU.node[15].wlan.mac 	nbRecvdAcks 	0
scalar WirelessNetworkMU.node[15].wlan.mac 	nbTxAcks 	0
scalar WirelessNetworkMU.node[15].wlan.mac 	nbDuplicates 	0
scalar WirelessNetworkMU.node[15].wlan.mac 	meanBackoff 	0
scalar WirelessNetworkMU.node[15].wlan.mac 	nbBackoffs 	0
scalar WirelessNetworkMU.node[15].wlan.mac 	backoffDurations 	0
scalar WirelessNetworkMU.node[15].wlan.phy 	nbFramesWithInterference 	0
scalar WirelessNetworkMU.node[15].wlan.phy 	nbFramesWithoutInterference 	8
scalar WirelessNetworkMU.node[15].wlan.phy 	nbFramesWithInterferencePartial 	0
scalar WirelessNetworkMU.node[15].wlan.phy 	nbFramesWithoutInterferencePartial 	0
scalar WirelessNetworkMU.node[15].wlan.phy 	nbFramesWithInterferenceDropped 	0
scalar WirelessNetworkMU.node[15].wlan.phy 	nbFramesWithoutInterferenceDropped 	0
scalar WirelessNetworkMU.node[15].batteryStats 	nominal 	1187988120
attr unit  mW-s
scalar WirelessNetworkMU.node[15].batteryStats 	total 	68.174548387527
attr unit  mW-s
scalar WirelessNetworkMU.node[15].batteryStats 	lifetime 	-1
attr unit  s
scalar WirelessNetworkMU.node[15].batteryStats 	"Mean power consumption" 	62.039999941712
attr unit  mW
statistic WirelessNetworkMU.node[16].net 	endToEndDelayRTP:stats
field count 0
field mean 0
field stddev -1.#IND
field sum 0
field sqrsum 0
field min 0
field max 0
attr interpolationmode  none
attr source  endToEndDelayRTP
attr title  "end-to-end delay RTP, stats"
attr unit  s
scalar WirelessNetworkMU.node[16].net 	paquetesRecibidosRTP:sum 	0
attr interpolationmode  none
attr source  recibidosRTP
attr title  "Paquetes recibidos RTP, sum"
scalar WirelessNetworkMU.node[16].net 	paquetesEnviadosWAM:sum 	0
attr interpolationmode  none
attr source  enviadosWAM
attr title  "Paquetes enviados WAM, sum"
scalar WirelessNetworkMU.node[16].net 	paquetesEnviadosAMR:sum 	0
attr interpolationmode  none
attr source  enviadosAMR
attr title  "Paquetes enviados AMR, sum"
scalar WirelessNetworkMU.node[16].routing 	forwardedRTP:sum 	0
attr interpolationmode  none
attr source  fwdRTP
attr title  "Forwarded RTP, sum"
scalar WirelessNetworkMU.node[16].routing 	forwardedWAM:sum 	0
attr interpolationmode  none
attr source  fwdWAM
attr title  "Forwarded WAM, sum"
scalar WirelessNetworkMU.node[16].routing 	forwardedAMR:sum 	0
attr interpolationmode  none
attr source  fwdAMR
attr title  "Forwarded AMR, sum"
scalar WirelessNetworkMU.node[16].wlan.mac 	nbTxFrames 	0
scalar WirelessNetworkMU.node[16].wlan.mac 	nbRxFrames 	0
scalar WirelessNetworkMU.node[16].wlan.mac 	nbDroppedFrames 	0
scalar WirelessNetworkMU.node[16].wlan.mac 	nbMissedAcks 	0
scalar WirelessNetworkMU.node[16].wlan.mac 	nbRecvdAcks 	0
scalar WirelessNetworkMU.node[16].wlan.mac 	nbTxAcks 	0
scalar WirelessNetworkMU.node[16].wlan.mac 	nbDuplicates 	0
scalar WirelessNetworkMU.node[16].wlan.mac 	meanBackoff 	0
scalar WirelessNetworkMU.node[16].wlan.mac 	nbBackoffs 	0
scalar WirelessNetworkMU.node[16].wlan.mac 	backoffDurations 	0
scalar WirelessNetworkMU.node[16].wlan.phy 	nbFramesWithInterference 	0
scalar WirelessNetworkMU.node[16].wlan.phy 	nbFramesWithoutInterference 	8
scalar WirelessNetworkMU.node[16].wlan.phy 	nbFramesWithInterferencePartial 	0
scalar WirelessNetworkMU.node[16].wlan.phy 	nbFramesWithoutInterferencePartial 	0
scalar WirelessNetworkMU.node[16].wlan.phy 	nbFramesWithInterferenceDropped 	0
scalar WirelessNetworkMU.node[16].wlan.phy 	nbFramesWithoutInterferenceDropped 	0
scalar WirelessNetworkMU.node[16].batteryStats 	nominal 	1187988120
attr unit  mW-s
scalar WirelessNetworkMU.node[16].batteryStats 	total 	68.174548387527
attr unit  mW-s
scalar WirelessNetworkMU.node[16].batteryStats 	lifetime 	-1
attr unit  s
scalar WirelessNetworkMU.node[16].batteryStats 	"Mean power consumption" 	62.039999941712
attr unit  mW
statistic WirelessNetworkMU.node[17].net 	endToEndDelayRTP:stats
field count 0
field mean 0
field stddev -1.#IND
field sum 0
field sqrsum 0
field min 0
field max 0
attr interpolationmode  none
attr source  endToEndDelayRTP
attr title  "end-to-end delay RTP, stats"
attr unit  s
scalar WirelessNetworkMU.node[17].net 	paquetesRecibidosRTP:sum 	0
attr interpolationmode  none
attr source  recibidosRTP
attr title  "Paquetes recibidos RTP, sum"
scalar WirelessNetworkMU.node[17].net 	paquetesEnviadosWAM:sum 	0
attr interpolationmode  none
attr source  enviadosWAM
attr title  "Paquetes enviados WAM, sum"
scalar WirelessNetworkMU.node[17].net 	paquetesEnviadosAMR:sum 	0
attr interpolationmode  none
attr source  enviadosAMR
attr title  "Paquetes enviados AMR, sum"
scalar WirelessNetworkMU.node[17].routing 	forwardedRTP:sum 	0
attr interpolationmode  none
attr source  fwdRTP
attr title  "Forwarded RTP, sum"
scalar WirelessNetworkMU.node[17].routing 	forwardedWAM:sum 	0
attr interpolationmode  none
attr source  fwdWAM
attr title  "Forwarded WAM, sum"
scalar WirelessNetworkMU.node[17].routing 	forwardedAMR:sum 	0
attr interpolationmode  none
attr source  fwdAMR
attr title  "Forwarded AMR, sum"
scalar WirelessNetworkMU.node[17].wlan.mac 	nbTxFrames 	0
scalar WirelessNetworkMU.node[17].wlan.mac 	nbRxFrames 	0
scalar WirelessNetworkMU.node[17].wlan.mac 	nbDroppedFrames 	0
scalar WirelessNetworkMU.node[17].wlan.mac 	nbMissedAcks 	0
scalar WirelessNetworkMU.node[17].wlan.mac 	nbRecvdAcks 	0
scalar WirelessNetworkMU.node[17].wlan.mac 	nbTxAcks 	0
scalar WirelessNetworkMU.node[17].wlan.mac 	nbDuplicates 	0
scalar WirelessNetworkMU.node[17].wlan.mac 	meanBackoff 	0
scalar WirelessNetworkMU.node[17].wlan.mac 	nbBackoffs 	0
scalar WirelessNetworkMU.node[17].wlan.mac 	backoffDurations 	0
scalar WirelessNetworkMU.node[17].wlan.phy 	nbFramesWithInterference 	0
scalar WirelessNetworkMU.node[17].wlan.phy 	nbFramesWithoutInterference 	8
scalar WirelessNetworkMU.node[17].wlan.phy 	nbFramesWithInterferencePartial 	0
scalar WirelessNetworkMU.node[17].wlan.phy 	nbFramesWithoutInterferencePartial 	0
scalar WirelessNetworkMU.node[17].wlan.phy 	nbFramesWithInterferenceDropped 	0
scalar WirelessNetworkMU.node[17].wlan.phy 	nbFramesWithoutInterferenceDropped 	0
scalar WirelessNetworkMU.node[17].batteryStats 	nominal 	1187988120
attr unit  mW-s
scalar WirelessNetworkMU.node[17].batteryStats 	total 	68.174548387527
attr unit  mW-s
scalar WirelessNetworkMU.node[17].batteryStats 	lifetime 	-1
attr unit  s
scalar WirelessNetworkMU.node[17].batteryStats 	"Mean power consumption" 	62.039999941712
attr unit  mW
statistic WirelessNetworkMU.node[18].net 	endToEndDelayRTP:stats
field count 0
field mean 0
field stddev -1.#IND
field sum 0
field sqrsum 0
field min 0
field max 0
attr interpolationmode  none
attr source  endToEndDelayRTP
attr title  "end-to-end delay RTP, stats"
attr unit  s
scalar WirelessNetworkMU.node[18].net 	paquetesRecibidosRTP:sum 	0
attr interpolationmode  none
attr source  recibidosRTP
attr title  "Paquetes recibidos RTP, sum"
scalar WirelessNetworkMU.node[18].net 	paquetesEnviadosWAM:sum 	0
attr interpolationmode  none
attr source  enviadosWAM
attr title  "Paquetes enviados WAM, sum"
scalar WirelessNetworkMU.node[18].net 	paquetesEnviadosAMR:sum 	0
attr interpolationmode  none
attr source  enviadosAMR
attr title  "Paquetes enviados AMR, sum"
scalar WirelessNetworkMU.node[18].routing 	forwardedRTP:sum 	0
attr interpolationmode  none
attr source  fwdRTP
attr title  "Forwarded RTP, sum"
scalar WirelessNetworkMU.node[18].routing 	forwardedWAM:sum 	0
attr interpolationmode  none
attr source  fwdWAM
attr title  "Forwarded WAM, sum"
scalar WirelessNetworkMU.node[18].routing 	forwardedAMR:sum 	0
attr interpolationmode  none
attr source  fwdAMR
attr title  "Forwarded AMR, sum"
scalar WirelessNetworkMU.node[18].wlan.mac 	nbTxFrames 	0
scalar WirelessNetworkMU.node[18].wlan.mac 	nbRxFrames 	0
scalar WirelessNetworkMU.node[18].wlan.mac 	nbDroppedFrames 	0
scalar WirelessNetworkMU.node[18].wlan.mac 	nbMissedAcks 	0
scalar WirelessNetworkMU.node[18].wlan.mac 	nbRecvdAcks 	0
scalar WirelessNetworkMU.node[18].wlan.mac 	nbTxAcks 	0
scalar WirelessNetworkMU.node[18].wlan.mac 	nbDuplicates 	0
scalar WirelessNetworkMU.node[18].wlan.mac 	meanBackoff 	0
scalar WirelessNetworkMU.node[18].wlan.mac 	nbBackoffs 	0
scalar WirelessNetworkMU.node[18].wlan.mac 	backoffDurations 	0
scalar WirelessNetworkMU.node[18].wlan.phy 	nbFramesWithInterference 	0
scalar WirelessNetworkMU.node[18].wlan.phy 	nbFramesWithoutInterference 	8
scalar WirelessNetworkMU.node[18].wlan.phy 	nbFramesWithInterferencePartial 	0
scalar WirelessNetworkMU.node[18].wlan.phy 	nbFramesWithoutInterferencePartial 	0
scalar WirelessNetworkMU.node[18].wlan.phy 	nbFramesWithInterferenceDropped 	0
scalar WirelessNetworkMU.node[18].wlan.phy 	nbFramesWithoutInterferenceDropped 	0
scalar WirelessNetworkMU.node[18].batteryStats 	nominal 	1187988120
attr unit  mW-s
scalar WirelessNetworkMU.node[18].batteryStats 	total 	68.174548387527
attr unit  mW-s
scalar WirelessNetworkMU.node[18].batteryStats 	lifetime 	-1
attr unit  s
scalar WirelessNetworkMU.node[18].batteryStats 	"Mean power consumption" 	62.039999941712
attr unit  mW
statistic WirelessNetworkMU.node[19].net 	endToEndDelayRTP:stats
field count 0
field mean 0
field stddev -1.#IND
field sum 0
field sqrsum 0
field min 0
field max 0
attr interpolationmode  none
attr source  endToEndDelayRTP
attr title  "end-to-end delay RTP, stats"
attr unit  s
scalar WirelessNetworkMU.node[19].net 	paquetesRecibidosRTP:sum 	0
attr interpolationmode  none
attr source  recibidosRTP
attr title  "Paquetes recibidos RTP, sum"
scalar WirelessNetworkMU.node[19].net 	paquetesEnviadosWAM:sum 	0
attr interpolationmode  none
attr source  enviadosWAM
attr title  "Paquetes enviados WAM, sum"
scalar WirelessNetworkMU.node[19].net 	paquetesEnviadosAMR:sum 	0
attr interpolationmode  none
attr source  enviadosAMR
attr title  "Paquetes enviados AMR, sum"
scalar WirelessNetworkMU.node[19].routing 	forwardedRTP:sum 	0
attr interpolationmode  none
attr source  fwdRTP
attr title  "Forwarded RTP, sum"
scalar WirelessNetworkMU.node[19].routing 	forwardedWAM:sum 	0
attr interpolationmode  none
attr source  fwdWAM
attr title  "Forwarded WAM, sum"
scalar WirelessNetworkMU.node[19].routing 	forwardedAMR:sum 	0
attr interpolationmode  none
attr source  fwdAMR
attr title  "Forwarded AMR, sum"
scalar WirelessNetworkMU.node[19].wlan.mac 	nbTxFrames 	0
scalar WirelessNetworkMU.node[19].wlan.mac 	nbRxFrames 	0
scalar WirelessNetworkMU.node[19].wlan.mac 	nbDroppedFrames 	0
scalar WirelessNetworkMU.node[19].wlan.mac 	nbMissedAcks 	0
scalar WirelessNetworkMU.node[19].wlan.mac 	nbRecvdAcks 	0
scalar WirelessNetworkMU.node[19].wlan.mac 	nbTxAcks 	0
scalar WirelessNetworkMU.node[19].wlan.mac 	nbDuplicates 	0
scalar WirelessNetworkMU.node[19].wlan.mac 	meanBackoff 	0
scalar WirelessNetworkMU.node[19].wlan.mac 	nbBackoffs 	0
scalar WirelessNetworkMU.node[19].wlan.mac 	backoffDurations 	0
scalar WirelessNetworkMU.node[19].wlan.phy 	nbFramesWithInterference 	0
scalar WirelessNetworkMU.node[19].wlan.phy 	nbFramesWithoutInterference 	8
scalar WirelessNetworkMU.node[19].wlan.phy 	nbFramesWithInterferencePartial 	0
scalar WirelessNetworkMU.node[19].wlan.phy 	nbFramesWithoutInterferencePartial 	0
scalar WirelessNetworkMU.node[19].wlan.phy 	nbFramesWithInterferenceDropped 	0
scalar WirelessNetworkMU.node[19].wlan.phy 	nbFramesWithoutInterferenceDropped 	0
scalar WirelessNetworkMU.node[19].batteryStats 	nominal 	1187988120
attr unit  mW-s
scalar WirelessNetworkMU.node[19].batteryStats 	total 	68.174548387527
attr unit  mW-s
scalar WirelessNetworkMU.node[19].batteryStats 	lifetime 	-1
attr unit  s
scalar WirelessNetworkMU.node[19].batteryStats 	"Mean power consumption" 	62.039999941712
attr unit  mW
statistic WirelessNetworkMU.node[20].net 	endToEndDelayRTP:stats
field count 0
field mean 0
field stddev -1.#IND
field sum 0
field sqrsum 0
field min 0
field max 0
attr interpolationmode  none
attr source  endToEndDelayRTP
attr title  "end-to-end delay RTP, stats"
attr unit  s
scalar WirelessNetworkMU.node[20].net 	paquetesRecibidosRTP:sum 	0
attr interpolationmode  none
attr source  recibidosRTP
attr title  "Paquetes recibidos RTP, sum"
scalar WirelessNetworkMU.node[20].net 	paquetesEnviadosWAM:sum 	0
attr interpolationmode  none
attr source  enviadosWAM
attr title  "Paquetes enviados WAM, sum"
scalar WirelessNetworkMU.node[20].net 	paquetesEnviadosAMR:sum 	0
attr interpolationmode  none
attr source  enviadosAMR
attr title  "Paquetes enviados AMR, sum"
scalar WirelessNetworkMU.node[20].routing 	forwardedRTP:sum 	0
attr interpolationmode  none
attr source  fwdRTP
attr title  "Forwarded RTP, sum"
scalar WirelessNetworkMU.node[20].routing 	forwardedWAM:sum 	0
attr interpolationmode  none
attr source  fwdWAM
attr title  "Forwarded WAM, sum"
scalar WirelessNetworkMU.node[20].routing 	forwardedAMR:sum 	0
attr interpolationmode  none
attr source  fwdAMR
attr title  "Forwarded AMR, sum"
scalar WirelessNetworkMU.node[20].wlan.mac 	nbTxFrames 	0
scalar WirelessNetworkMU.node[20].wlan.mac 	nbRxFrames 	0
scalar WirelessNetworkMU.node[20].wlan.mac 	nbDroppedFrames 	0
scalar WirelessNetworkMU.node[20].wlan.mac 	nbMissedAcks 	0
scalar WirelessNetworkMU.node[20].wlan.mac 	nbRecvdAcks 	0
scalar WirelessNetworkMU.node[20].wlan.mac 	nbTxAcks 	0
scalar WirelessNetworkMU.node[20].wlan.mac 	nbDuplicates 	0
scalar WirelessNetworkMU.node[20].wlan.mac 	meanBackoff 	0
scalar WirelessNetworkMU.node[20].wlan.mac 	nbBackoffs 	0
scalar WirelessNetworkMU.node[20].wlan.mac 	backoffDurations 	0
scalar WirelessNetworkMU.node[20].wlan.phy 	nbFramesWithInterference 	0
scalar WirelessNetworkMU.node[20].wlan.phy 	nbFramesWithoutInterference 	8
scalar WirelessNetworkMU.node[20].wlan.phy 	nbFramesWithInterferencePartial 	0
scalar WirelessNetworkMU.node[20].wlan.phy 	nbFramesWithoutInterferencePartial 	0
scalar WirelessNetworkMU.node[20].wlan.phy 	nbFramesWithInterferenceDropped 	0
scalar WirelessNetworkMU.node[20].wlan.phy 	nbFramesWithoutInterferenceDropped 	0
scalar WirelessNetworkMU.node[20].batteryStats 	nominal 	1187988120
attr unit  mW-s
scalar WirelessNetworkMU.node[20].batteryStats 	total 	68.174548387527
attr unit  mW-s
scalar WirelessNetworkMU.node[20].batteryStats 	lifetime 	-1
attr unit  s
scalar WirelessNetworkMU.node[20].batteryStats 	"Mean power consumption" 	62.039999941712
attr unit  mW
statistic WirelessNetworkMU.node[21].net 	endToEndDelayRTP:stats
field count 0
field mean 0
field stddev -1.#IND
field sum 0
field sqrsum 0
field min 0
field max 0
attr interpolationmode  none
attr source  endToEndDelayRTP
attr title  "end-to-end delay RTP, stats"
attr unit  s
scalar WirelessNetworkMU.node[21].net 	paquetesRecibidosRTP:sum 	0
attr interpolationmode  none
attr source  recibidosRTP
attr title  "Paquetes recibidos RTP, sum"
scalar WirelessNetworkMU.node[21].net 	paquetesEnviadosWAM:sum 	0
attr interpolationmode  none
attr source  enviadosWAM
attr title  "Paquetes enviados WAM, sum"
scalar WirelessNetworkMU.node[21].net 	paquetesEnviadosAMR:sum 	0
attr interpolationmode  none
attr source  enviadosAMR
attr title  "Paquetes enviados AMR, sum"
scalar WirelessNetworkMU.node[21].routing 	forwardedRTP:sum 	0
attr interpolationmode  none
attr source  fwdRTP
attr title  "Forwarded RTP, sum"
scalar WirelessNetworkMU.node[21].routing 	forwardedWAM:sum 	0
attr interpolationmode  none
attr source  fwdWAM
attr title  "Forwarded WAM, sum"
scalar WirelessNetworkMU.node[21].routing 	forwardedAMR:sum 	0
attr interpolationmode  none
attr source  fwdAMR
attr title  "Forwarded AMR, sum"
scalar WirelessNetworkMU.node[21].wlan.mac 	nbTxFrames 	0
scalar WirelessNetworkMU.node[21].wlan.mac 	nbRxFrames 	0
scalar WirelessNetworkMU.node[21].wlan.mac 	nbDroppedFrames 	0
scalar WirelessNetworkMU.node[21].wlan.mac 	nbMissedAcks 	0
scalar WirelessNetworkMU.node[21].wlan.mac 	nbRecvdAcks 	0
scalar WirelessNetworkMU.node[21].wlan.mac 	nbTxAcks 	0
scalar WirelessNetworkMU.node[21].wlan.mac 	nbDuplicates 	0
scalar WirelessNetworkMU.node[21].wlan.mac 	meanBackoff 	0
scalar WirelessNetworkMU.node[21].wlan.mac 	nbBackoffs 	0
scalar WirelessNetworkMU.node[21].wlan.mac 	backoffDurations 	0
scalar WirelessNetworkMU.node[21].wlan.phy 	nbFramesWithInterference 	0
scalar WirelessNetworkMU.node[21].wlan.phy 	nbFramesWithoutInterference 	8
scalar WirelessNetworkMU.node[21].wlan.phy 	nbFramesWithInterferencePartial 	0
scalar WirelessNetworkMU.node[21].wlan.phy 	nbFramesWithoutInterferencePartial 	0
scalar WirelessNetworkMU.node[21].wlan.phy 	nbFramesWithInterferenceDropped 	0
scalar WirelessNetworkMU.node[21].wlan.phy 	nbFramesWithoutInterferenceDropped 	0
scalar WirelessNetworkMU.node[21].batteryStats 	nominal 	1187988120
attr unit  mW-s
scalar WirelessNetworkMU.node[21].batteryStats 	total 	68.174548387527
attr unit  mW-s
scalar WirelessNetworkMU.node[21].batteryStats 	lifetime 	-1
attr unit  s
scalar WirelessNetworkMU.node[21].batteryStats 	"Mean power consumption" 	62.039999941712
attr unit  mW
statistic WirelessNetworkMU.node[22].net 	endToEndDelayRTP:stats
field count 0
field mean 0
field stddev -1.#IND
field sum 0
field sqrsum 0
field min 0
field max 0
attr interpolationmode  none
attr source  endToEndDelayRTP
attr title  "end-to-end delay RTP, stats"
attr unit  s
scalar WirelessNetworkMU.node[22].net 	paquetesRecibidosRTP:sum 	0
attr interpolationmode  none
attr source  recibidosRTP
attr title  "Paquetes recibidos RTP, sum"
scalar WirelessNetworkMU.node[22].net 	paquetesEnviadosWAM:sum 	0
attr interpolationmode  none
attr source  enviadosWAM
attr title  "Paquetes enviados WAM, sum"
scalar WirelessNetworkMU.node[22].net 	paquetesEnviadosAMR:sum 	0
attr interpolationmode  none
attr source  enviadosAMR
attr title  "Paquetes enviados AMR, sum"
scalar WirelessNetworkMU.node[22].routing 	forwardedRTP:sum 	0
attr interpolationmode  none
attr source  fwdRTP
attr title  "Forwarded RTP, sum"
scalar WirelessNetworkMU.node[22].routing 	forwardedWAM:sum 	0
attr interpolationmode  none
attr source  fwdWAM
attr title  "Forwarded WAM, sum"
scalar WirelessNetworkMU.node[22].routing 	forwardedAMR:sum 	0
attr interpolationmode  none
attr source  fwdAMR
attr title  "Forwarded AMR, sum"
scalar WirelessNetworkMU.node[22].wlan.mac 	nbTxFrames 	0
scalar WirelessNetworkMU.node[22].wlan.mac 	nbRxFrames 	0
scalar WirelessNetworkMU.node[22].wlan.mac 	nbDroppedFrames 	0
scalar WirelessNetworkMU.node[22].wlan.mac 	nbMissedAcks 	0
scalar WirelessNetworkMU.node[22].wlan.mac 	nbRecvdAcks 	0
scalar WirelessNetworkMU.node[22].wlan.mac 	nbTxAcks 	0
scalar WirelessNetworkMU.node[22].wlan.mac 	nbDuplicates 	0
scalar WirelessNetworkMU.node[22].wlan.mac 	meanBackoff 	0
scalar WirelessNetworkMU.node[22].wlan.mac 	nbBackoffs 	0
scalar WirelessNetworkMU.node[22].wlan.mac 	backoffDurations 	0
scalar WirelessNetworkMU.node[22].wlan.phy 	nbFramesWithInterference 	0
scalar WirelessNetworkMU.node[22].wlan.phy 	nbFramesWithoutInterference 	8
scalar WirelessNetworkMU.node[22].wlan.phy 	nbFramesWithInterferencePartial 	0
scalar WirelessNetworkMU.node[22].wlan.phy 	nbFramesWithoutInterferencePartial 	0
scalar WirelessNetworkMU.node[22].wlan.phy 	nbFramesWithInterferenceDropped 	0
scalar WirelessNetworkMU.node[22].wlan.phy 	nbFramesWithoutInterferenceDropped 	0
scalar WirelessNetworkMU.node[22].batteryStats 	nominal 	1187988120
attr unit  mW-s
scalar WirelessNetworkMU.node[22].batteryStats 	total 	68.174548387527
attr unit  mW-s
scalar WirelessNetworkMU.node[22].batteryStats 	lifetime 	-1
attr unit  s
scalar WirelessNetworkMU.node[22].batteryStats 	"Mean power consumption" 	62.039999941712
attr unit  mW
statistic WirelessNetworkMU.node[23].net 	endToEndDelayRTP:stats
field count 0
field mean 0
field stddev -1.#IND
field sum 0
field sqrsum 0
field min 0
field max 0
attr interpolationmode  none
attr source  endToEndDelayRTP
attr title  "end-to-end delay RTP, stats"
attr unit  s
scalar WirelessNetworkMU.node[23].net 	paquetesRecibidosRTP:sum 	0
attr interpolationmode  none
attr source  recibidosRTP
attr title  "Paquetes recibidos RTP, sum"
scalar WirelessNetworkMU.node[23].net 	paquetesEnviadosWAM:sum 	0
attr interpolationmode  none
attr source  enviadosWAM
attr title  "Paquetes enviados WAM, sum"
scalar WirelessNetworkMU.node[23].net 	paquetesEnviadosAMR:sum 	0
attr interpolationmode  none
attr source  enviadosAMR
attr title  "Paquetes enviados AMR, sum"
scalar WirelessNetworkMU.node[23].routing 	forwardedRTP:sum 	0
attr interpolationmode  none
attr source  fwdRTP
attr title  "Forwarded RTP, sum"
scalar WirelessNetworkMU.node[23].routing 	forwardedWAM:sum 	0
attr interpolationmode  none
attr source  fwdWAM
attr title  "Forwarded WAM, sum"
scalar WirelessNetworkMU.node[23].routing 	forwardedAMR:sum 	0
attr interpolationmode  none
attr source  fwdAMR
attr title  "Forwarded AMR, sum"
scalar WirelessNetworkMU.node[23].wlan.mac 	nbTxFrames 	0
scalar WirelessNetworkMU.node[23].wlan.mac 	nbRxFrames 	0
scalar WirelessNetworkMU.node[23].wlan.mac 	nbDroppedFrames 	0
scalar WirelessNetworkMU.node[23].wlan.mac 	nbMissedAcks 	0
scalar WirelessNetworkMU.node[23].wlan.mac 	nbRecvdAcks 	0
scalar WirelessNetworkMU.node[23].wlan.mac 	nbTxAcks 	0
scalar WirelessNetworkMU.node[23].wlan.mac 	nbDuplicates 	0
scalar WirelessNetworkMU.node[23].wlan.mac 	meanBackoff 	0
scalar WirelessNetworkMU.node[23].wlan.mac 	nbBackoffs 	0
scalar WirelessNetworkMU.node[23].wlan.mac 	backoffDurations 	0
scalar WirelessNetworkMU.node[23].wlan.phy 	nbFramesWithInterference 	0
scalar WirelessNetworkMU.node[23].wlan.phy 	nbFramesWithoutInterference 	8
scalar WirelessNetworkMU.node[23].wlan.phy 	nbFramesWithInterferencePartial 	0
scalar WirelessNetworkMU.node[23].wlan.phy 	nbFramesWithoutInterferencePartial 	0
scalar WirelessNetworkMU.node[23].wlan.phy 	nbFramesWithInterferenceDropped 	0
scalar WirelessNetworkMU.node[23].wlan.phy 	nbFramesWithoutInterferenceDropped 	0
scalar WirelessNetworkMU.node[23].batteryStats 	nominal 	1187988120
attr unit  mW-s
scalar WirelessNetworkMU.node[23].batteryStats 	total 	68.174548387527
attr unit  mW-s
scalar WirelessNetworkMU.node[23].batteryStats 	lifetime 	-1
attr unit  s
scalar WirelessNetworkMU.node[23].batteryStats 	"Mean power consumption" 	62.039999941712
attr unit  mW
statistic WirelessNetworkMU.node[24].net 	endToEndDelayRTP:stats
field count 0
field mean 0
field stddev -1.#IND
field sum 0
field sqrsum 0
field min 0
field max 0
attr interpolationmode  none
attr source  endToEndDelayRTP
attr title  "end-to-end delay RTP, stats"
attr unit  s
scalar WirelessNetworkMU.node[24].net 	paquetesRecibidosRTP:sum 	0
attr interpolationmode  none
attr source  recibidosRTP
attr title  "Paquetes recibidos RTP, sum"
scalar WirelessNetworkMU.node[24].net 	paquetesEnviadosWAM:sum 	0
attr interpolationmode  none
attr source  enviadosWAM
attr title  "Paquetes enviados WAM, sum"
scalar WirelessNetworkMU.node[24].net 	paquetesEnviadosAMR:sum 	0
attr interpolationmode  none
attr source  enviadosAMR
attr title  "Paquetes enviados AMR, sum"
scalar WirelessNetworkMU.node[24].routing 	forwardedRTP:sum 	0
attr interpolationmode  none
attr source  fwdRTP
attr title  "Forwarded RTP, sum"
scalar WirelessNetworkMU.node[24].routing 	forwardedWAM:sum 	0
attr interpolationmode  none
attr source  fwdWAM
attr title  "Forwarded WAM, sum"
scalar WirelessNetworkMU.node[24].routing 	forwardedAMR:sum 	0
attr interpolationmode  none
attr source  fwdAMR
attr title  "Forwarded AMR, sum"
scalar WirelessNetworkMU.node[24].wlan.mac 	nbTxFrames 	0
scalar WirelessNetworkMU.node[24].wlan.mac 	nbRxFrames 	0
scalar WirelessNetworkMU.node[24].wlan.mac 	nbDroppedFrames 	0
scalar WirelessNetworkMU.node[24].wlan.mac 	nbMissedAcks 	0
scalar WirelessNetworkMU.node[24].wlan.mac 	nbRecvdAcks 	0
scalar WirelessNetworkMU.node[24].wlan.mac 	nbTxAcks 	0
scalar WirelessNetworkMU.node[24].wlan.mac 	nbDuplicates 	0
scalar WirelessNetworkMU.node[24].wlan.mac 	meanBackoff 	0
scalar WirelessNetworkMU.node[24].wlan.mac 	nbBackoffs 	0
scalar WirelessNetworkMU.node[24].wlan.mac 	backoffDurations 	0
scalar WirelessNetworkMU.node[24].wlan.phy 	nbFramesWithInterference 	0
scalar WirelessNetworkMU.node[24].wlan.phy 	nbFramesWithoutInterference 	8
scalar WirelessNetworkMU.node[24].wlan.phy 	nbFramesWithInterferencePartial 	0
scalar WirelessNetworkMU.node[24].wlan.phy 	nbFramesWithoutInterferencePartial 	0
scalar WirelessNetworkMU.node[24].wlan.phy 	nbFramesWithInterferenceDropped 	0
scalar WirelessNetworkMU.node[24].wlan.phy 	nbFramesWithoutInterferenceDropped 	0
scalar WirelessNetworkMU.node[24].batteryStats 	nominal 	1187988120
attr unit  mW-s
scalar WirelessNetworkMU.node[24].batteryStats 	total 	68.174548387527
attr unit  mW-s
scalar WirelessNetworkMU.node[24].batteryStats 	lifetime 	-1
attr unit  s
scalar WirelessNetworkMU.node[24].batteryStats 	"Mean power consumption" 	62.039999941712
attr unit  mW
statistic WirelessNetworkMU.node[25].net 	endToEndDelayRTP:stats
field count 0
field mean 0
field stddev -1.#IND
field sum 0
field sqrsum 0
field min 0
field max 0
attr interpolationmode  none
attr source  endToEndDelayRTP
attr title  "end-to-end delay RTP, stats"
attr unit  s
scalar WirelessNetworkMU.node[25].net 	paquetesRecibidosRTP:sum 	0
attr interpolationmode  none
attr source  recibidosRTP
attr title  "Paquetes recibidos RTP, sum"
scalar WirelessNetworkMU.node[25].net 	paquetesEnviadosWAM:sum 	0
attr interpolationmode  none
attr source  enviadosWAM
attr title  "Paquetes enviados WAM, sum"
scalar WirelessNetworkMU.node[25].net 	paquetesEnviadosAMR:sum 	0
attr interpolationmode  none
attr source  enviadosAMR
attr title  "Paquetes enviados AMR, sum"
scalar WirelessNetworkMU.node[25].routing 	forwardedRTP:sum 	0
attr interpolationmode  none
attr source  fwdRTP
attr title  "Forwarded RTP, sum"
scalar WirelessNetworkMU.node[25].routing 	forwardedWAM:sum 	0
attr interpolationmode  none
attr source  fwdWAM
attr title  "Forwarded WAM, sum"
scalar WirelessNetworkMU.node[25].routing 	forwardedAMR:sum 	0
attr interpolationmode  none
attr source  fwdAMR
attr title  "Forwarded AMR, sum"
scalar WirelessNetworkMU.node[25].wlan.mac 	nbTxFrames 	0
scalar WirelessNetworkMU.node[25].wlan.mac 	nbRxFrames 	0
scalar WirelessNetworkMU.node[25].wlan.mac 	nbDroppedFrames 	0
scalar WirelessNetworkMU.node[25].wlan.mac 	nbMissedAcks 	0
scalar WirelessNetworkMU.node[25].wlan.mac 	nbRecvdAcks 	0
scalar WirelessNetworkMU.node[25].wlan.mac 	nbTxAcks 	0
scalar WirelessNetworkMU.node[25].wlan.mac 	nbDuplicates 	0
scalar WirelessNetworkMU.node[25].wlan.mac 	meanBackoff 	0
scalar WirelessNetworkMU.node[25].wlan.mac 	nbBackoffs 	0
scalar WirelessNetworkMU.node[25].wlan.mac 	backoffDurations 	0
scalar WirelessNetworkMU.node[25].wlan.phy 	nbFramesWithInterference 	0
scalar WirelessNetworkMU.node[25].wlan.phy 	nbFramesWithoutInterference 	8
scalar WirelessNetworkMU.node[25].wlan.phy 	nbFramesWithInterferencePartial 	0
scalar WirelessNetworkMU.node[25].wlan.phy 	nbFramesWithoutInterferencePartial 	0
scalar WirelessNetworkMU.node[25].wlan.phy 	nbFramesWithInterferenceDropped 	0
scalar WirelessNetworkMU.node[25].wlan.phy 	nbFramesWithoutInterferenceDropped 	0
scalar WirelessNetworkMU.node[25].batteryStats 	nominal 	1187988120
attr unit  mW-s
scalar WirelessNetworkMU.node[25].batteryStats 	total 	68.174548387527
attr unit  mW-s
scalar WirelessNetworkMU.node[25].batteryStats 	lifetime 	-1
attr unit  s
scalar WirelessNetworkMU.node[25].batteryStats 	"Mean power consumption" 	62.039999941712
attr unit  mW
statistic WirelessNetworkMU.node[26].net 	endToEndDelayRTP:stats
field count 0
field mean 0
field stddev -1.#IND
field sum 0
field sqrsum 0
field min 0
field max 0
attr interpolationmode  none
attr source  endToEndDelayRTP
attr title  "end-to-end delay RTP, stats"
attr unit  s
scalar WirelessNetworkMU.node[26].net 	paquetesRecibidosRTP:sum 	0
attr interpolationmode  none
attr source  recibidosRTP
attr title  "Paquetes recibidos RTP, sum"
scalar WirelessNetworkMU.node[26].net 	paquetesEnviadosWAM:sum 	0
attr interpolationmode  none
attr source  enviadosWAM
attr title  "Paquetes enviados WAM, sum"
scalar WirelessNetworkMU.node[26].net 	paquetesEnviadosAMR:sum 	0
attr interpolationmode  none
attr source  enviadosAMR
attr title  "Paquetes enviados AMR, sum"
scalar WirelessNetworkMU.node[26].routing 	forwardedRTP:sum 	0
attr interpolationmode  none
attr source  fwdRTP
attr title  "Forwarded RTP, sum"
scalar WirelessNetworkMU.node[26].routing 	forwardedWAM:sum 	0
attr interpolationmode  none
attr source  fwdWAM
attr title  "Forwarded WAM, sum"
scalar WirelessNetworkMU.node[26].routing 	forwardedAMR:sum 	0
attr interpolationmode  none
attr source  fwdAMR
attr title  "Forwarded AMR, sum"
scalar WirelessNetworkMU.node[26].wlan.mac 	nbTxFrames 	0
scalar WirelessNetworkMU.node[26].wlan.mac 	nbRxFrames 	0
scalar WirelessNetworkMU.node[26].wlan.mac 	nbDroppedFrames 	0
scalar WirelessNetworkMU.node[26].wlan.mac 	nbMissedAcks 	0
scalar WirelessNetworkMU.node[26].wlan.mac 	nbRecvdAcks 	0
scalar WirelessNetworkMU.node[26].wlan.mac 	nbTxAcks 	0
scalar WirelessNetworkMU.node[26].wlan.mac 	nbDuplicates 	0
scalar WirelessNetworkMU.node[26].wlan.mac 	meanBackoff 	0
scalar WirelessNetworkMU.node[26].wlan.mac 	nbBackoffs 	0
scalar WirelessNetworkMU.node[26].wlan.mac 	backoffDurations 	0
scalar WirelessNetworkMU.node[26].wlan.phy 	nbFramesWithInterference 	0
scalar WirelessNetworkMU.node[26].wlan.phy 	nbFramesWithoutInterference 	8
scalar WirelessNetworkMU.node[26].wlan.phy 	nbFramesWithInterferencePartial 	0
scalar WirelessNetworkMU.node[26].wlan.phy 	nbFramesWithoutInterferencePartial 	0
scalar WirelessNetworkMU.node[26].wlan.phy 	nbFramesWithInterferenceDropped 	0
scalar WirelessNetworkMU.node[26].wlan.phy 	nbFramesWithoutInterferenceDropped 	0
scalar WirelessNetworkMU.node[26].batteryStats 	nominal 	1187988120
attr unit  mW-s
scalar WirelessNetworkMU.node[26].batteryStats 	total 	68.174548387527
attr unit  mW-s
scalar WirelessNetworkMU.node[26].batteryStats 	lifetime 	-1
attr unit  s
scalar WirelessNetworkMU.node[26].batteryStats 	"Mean power consumption" 	62.039999941712
attr unit  mW
statistic WirelessNetworkMU.node[27].net 	endToEndDelayRTP:stats
field count 0
field mean 0
field stddev -1.#IND
field sum 0
field sqrsum 0
field min 0
field max 0
attr interpolationmode  none
attr source  endToEndDelayRTP
attr title  "end-to-end delay RTP, stats"
attr unit  s
scalar WirelessNetworkMU.node[27].net 	paquetesRecibidosRTP:sum 	0
attr interpolationmode  none
attr source  recibidosRTP
attr title  "Paquetes recibidos RTP, sum"
scalar WirelessNetworkMU.node[27].net 	paquetesEnviadosWAM:sum 	1
attr interpolationmode  none
attr source  enviadosWAM
attr title  "Paquetes enviados WAM, sum"
scalar WirelessNetworkMU.node[27].net 	paquetesEnviadosAMR:sum 	0
attr interpolationmode  none
attr source  enviadosAMR
attr title  "Paquetes enviados AMR, sum"
scalar WirelessNetworkMU.node[27].routing 	forwardedRTP:sum 	0
attr interpolationmode  none
attr source  fwdRTP
attr title  "Forwarded RTP, sum"
scalar WirelessNetworkMU.node[27].routing 	forwardedWAM:sum 	0
attr interpolationmode  none
attr source  fwdWAM
attr title  "Forwarded WAM, sum"
scalar WirelessNetworkMU.node[27].routing 	forwardedAMR:sum 	0
attr interpolationmode  none
attr source  fwdAMR
attr title  "Forwarded AMR, sum"
scalar WirelessNetworkMU.node[27].wlan.mac 	nbTxFrames 	1
scalar WirelessNetworkMU.node[27].wlan.mac 	nbRxFrames 	0
scalar WirelessNetworkMU.node[27].wlan.mac 	nbDroppedFrames 	0
scalar WirelessNetworkMU.node[27].wlan.mac 	nbMissedAcks 	0
scalar WirelessNetworkMU.node[27].wlan.mac 	nbRecvdAcks 	1
scalar WirelessNetworkMU.node[27].wlan.mac 	nbTxAcks 	0
scalar WirelessNetworkMU.node[27].wlan.mac 	nbDuplicates 	0
scalar WirelessNetworkMU.node[27].wlan.mac 	meanBackoff 	0
scalar WirelessNetworkMU.node[27].wlan.mac 	nbBackoffs 	1
scalar WirelessNetworkMU.node[27].wlan.mac 	backoffDurations 	0
scalar WirelessNetworkMU.node[27].wlan.phy 	nbFramesWithInterference 	0
scalar WirelessNetworkMU.node[27].wlan.phy 	nbFramesWithoutInterference 	7
scalar WirelessNetworkMU.node[27].wlan.phy 	nbFramesWithInterferencePartial 	0
scalar WirelessNetworkMU.node[27].wlan.phy 	nbFramesWithoutInterferencePartial 	0
scalar WirelessNetworkMU.node[27].wlan.phy 	nbFramesWithInterferenceDropped 	0
scalar WirelessNetworkMU.node[27].wlan.phy 	nbFramesWithoutInterferenceDropped 	0
scalar WirelessNetworkMU.node[27].batteryStats 	nominal 	1187988120
attr unit  mW-s
scalar WirelessNetworkMU.node[27].batteryStats 	total 	68.165530204773
attr unit  mW-s
scalar WirelessNetworkMU.node[27].batteryStats 	lifetime 	-1
attr unit  s
scalar WirelessNetworkMU.node[27].batteryStats 	"Mean power consumption" 	62.03179324184
attr unit  mW
statistic WirelessNetworkMU.node[28].net 	endToEndDelayRTP:stats
field count 0
field mean 0
field stddev -1.#IND
field sum 0
field sqrsum 0
field min 0
field max 0
attr interpolationmode  none
attr source  endToEndDelayRTP
attr title  "end-to-end delay RTP, stats"
attr unit  s
scalar WirelessNetworkMU.node[28].net 	paquetesRecibidosRTP:sum 	0
attr interpolationmode  none
attr source  recibidosRTP
attr title  "Paquetes recibidos RTP, sum"
scalar WirelessNetworkMU.node[28].net 	paquetesEnviadosWAM:sum 	0
attr interpolationmode  none
attr source  enviadosWAM
attr title  "Paquetes enviados WAM, sum"
scalar WirelessNetworkMU.node[28].net 	paquetesEnviadosAMR:sum 	0
attr interpolationmode  none
attr source  enviadosAMR
attr title  "Paquetes enviados AMR, sum"
scalar WirelessNetworkMU.node[28].routing 	forwardedRTP:sum 	0
attr interpolationmode  none
attr source  fwdRTP
attr title  "Forwarded RTP, sum"
scalar WirelessNetworkMU.node[28].routing 	forwardedWAM:sum 	0
attr interpolationmode  none
attr source  fwdWAM
attr title  "Forwarded WAM, sum"
scalar WirelessNetworkMU.node[28].routing 	forwardedAMR:sum 	0
attr interpolationmode  none
attr source  fwdAMR
attr title  "Forwarded AMR, sum"
scalar WirelessNetworkMU.node[28].wlan.mac 	nbTxFrames 	0
scalar WirelessNetworkMU.node[28].wlan.mac 	nbRxFrames 	0
scalar WirelessNetworkMU.node[28].wlan.mac 	nbDroppedFrames 	0
scalar WirelessNetworkMU.node[28].wlan.mac 	nbMissedAcks 	0
scalar WirelessNetworkMU.node[28].wlan.mac 	nbRecvdAcks 	0
scalar WirelessNetworkMU.node[28].wlan.mac 	nbTxAcks 	0
scalar WirelessNetworkMU.node[28].wlan.mac 	nbDuplicates 	0
scalar WirelessNetworkMU.node[28].wlan.mac 	meanBackoff 	0
scalar WirelessNetworkMU.node[28].wlan.mac 	nbBackoffs 	0
scalar WirelessNetworkMU.node[28].wlan.mac 	backoffDurations 	0
scalar WirelessNetworkMU.node[28].wlan.phy 	nbFramesWithInterference 	0
scalar WirelessNetworkMU.node[28].wlan.phy 	nbFramesWithoutInterference 	8
scalar WirelessNetworkMU.node[28].wlan.phy 	nbFramesWithInterferencePartial 	0
scalar WirelessNetworkMU.node[28].wlan.phy 	nbFramesWithoutInterferencePartial 	0
scalar WirelessNetworkMU.node[28].wlan.phy 	nbFramesWithInterferenceDropped 	0
scalar WirelessNetworkMU.node[28].wlan.phy 	nbFramesWithoutInterferenceDropped 	0
scalar WirelessNetworkMU.node[28].batteryStats 	nominal 	1187988120
attr unit  mW-s
scalar WirelessNetworkMU.node[28].batteryStats 	total 	68.174548387527
attr unit  mW-s
scalar WirelessNetworkMU.node[28].batteryStats 	lifetime 	-1
attr unit  s
scalar WirelessNetworkMU.node[28].batteryStats 	"Mean power consumption" 	62.039999941712
attr unit  mW
statistic WirelessNetworkMU.node[29].net 	endToEndDelayRTP:stats
field count 0
field mean 0
field stddev -1.#IND
field sum 0
field sqrsum 0
field min 0
field max 0
attr interpolationmode  none
attr source  endToEndDelayRTP
attr title  "end-to-end delay RTP, stats"
attr unit  s
scalar WirelessNetworkMU.node[29].net 	paquetesRecibidosRTP:sum 	0
attr interpolationmode  none
attr source  recibidosRTP
attr title  "Paquetes recibidos RTP, sum"
scalar WirelessNetworkMU.node[29].net 	paquetesEnviadosWAM:sum 	0
attr interpolationmode  none
attr source  enviadosWAM
attr title  "Paquetes enviados WAM, sum"
scalar WirelessNetworkMU.node[29].net 	paquetesEnviadosAMR:sum 	0
attr interpolationmode  none
attr source  enviadosAMR
attr title  "Paquetes enviados AMR, sum"
scalar WirelessNetworkMU.node[29].routing 	forwardedRTP:sum 	0
attr interpolationmode  none
attr source  fwdRTP
attr title  "Forwarded RTP, sum"
scalar WirelessNetworkMU.node[29].routing 	forwardedWAM:sum 	0
attr interpolationmode  none
attr source  fwdWAM
attr title  "Forwarded WAM, sum"
scalar WirelessNetworkMU.node[29].routing 	forwardedAMR:sum 	0
attr interpolationmode  none
attr source  fwdAMR
attr title  "Forwarded AMR, sum"
scalar WirelessNetworkMU.node[29].wlan.mac 	nbTxFrames 	0
scalar WirelessNetworkMU.node[29].wlan.mac 	nbRxFrames 	0
scalar WirelessNetworkMU.node[29].wlan.mac 	nbDroppedFrames 	0
scalar WirelessNetworkMU.node[29].wlan.mac 	nbMissedAcks 	0
scalar WirelessNetworkMU.node[29].wlan.mac 	nbRecvdAcks 	0
scalar WirelessNetworkMU.node[29].wlan.mac 	nbTxAcks 	0
scalar WirelessNetworkMU.node[29].wlan.mac 	nbDuplicates 	0
scalar WirelessNetworkMU.node[29].wlan.mac 	meanBackoff 	0
scalar WirelessNetworkMU.node[29].wlan.mac 	nbBackoffs 	0
scalar WirelessNetworkMU.node[29].wlan.mac 	backoffDurations 	0
scalar WirelessNetworkMU.node[29].wlan.phy 	nbFramesWithInterference 	0
scalar WirelessNetworkMU.node[29].wlan.phy 	nbFramesWithoutInterference 	8
scalar WirelessNetworkMU.node[29].wlan.phy 	nbFramesWithInterferencePartial 	0
scalar WirelessNetworkMU.node[29].wlan.phy 	nbFramesWithoutInterferencePartial 	0
scalar WirelessNetworkMU.node[29].wlan.phy 	nbFramesWithInterferenceDropped 	0
[...]
attr title  "Forwarded WAM, sum"
scalar WirelessNetworkMU.node[94].routing 	forwardedAMR:sum 	0
attr interpolationmode  none
attr source  fwdAMR
attr title  "Forwarded AMR, sum"
scalar WirelessNetworkMU.node[94].wlan.mac 	nbTxFrames 	0
scalar WirelessNetworkMU.node[94].wlan.mac 	nbRxFrames 	0
scalar WirelessNetworkMU.node[94].wlan.mac 	nbDroppedFrames 	0
scalar WirelessNetworkMU.node[94].wlan.mac 	nbMissedAcks 	0
scalar WirelessNetworkMU.node[94].wlan.mac 	nbRecvdAcks 	0
scalar WirelessNetworkMU.node[94].wlan.mac 	nbTxAcks 	0
scalar WirelessNetworkMU.node[94].wlan.mac 	nbDuplicates 	0
scalar WirelessNetworkMU.node[94].wlan.mac 	meanBackoff 	0
scalar WirelessNetworkMU.node[94].wlan.mac 	nbBackoffs 	0
scalar WirelessNetworkMU.node[94].wlan.mac 	backoffDurations 	0
scalar WirelessNetworkMU.node[94].wlan.phy 	nbFramesWithInterference 	0
scalar WirelessNetworkMU.node[94].wlan.phy 	nbFramesWithoutInterference 	8
scalar WirelessNetworkMU.node[94].wlan.phy 	nbFramesWithInterferencePartial 	0
scalar WirelessNetworkMU.node[94].wlan.phy 	nbFramesWithoutInterferencePartial 	0
scalar WirelessNetworkMU.node[94].wlan.phy 	nbFramesWithInterferenceDropped 	0
scalar WirelessNetworkMU.node[94].wlan.phy 	nbFramesWithoutInterferenceDropped 	0
scalar WirelessNetworkMU.node[94].batteryStats 	nominal 	1187988120
attr unit  mW-s
scalar WirelessNetworkMU.node[94].batteryStats 	total 	68.174548387527
attr unit  mW-s
scalar WirelessNetworkMU.node[94].batteryStats 	lifetime 	-1
attr unit  s
scalar WirelessNetworkMU.node[94].batteryStats 	"Mean power consumption" 	62.039999941712
attr unit  mW
statistic WirelessNetworkMU.node[95].net 	endToEndDelayRTP:stats
field count 0
field mean 0
field stddev -1.#IND
field sum 0
field sqrsum 0
field min 0
field max 0
attr interpolationmode  none
attr source  endToEndDelayRTP
attr title  "end-to-end delay RTP, stats"
attr unit  s
scalar WirelessNetworkMU.node[95].net 	paquetesRecibidosRTP:sum 	0
attr interpolationmode  none
attr source  recibidosRTP
attr title  "Paquetes recibidos RTP, sum"
scalar WirelessNetworkMU.node[95].net 	paquetesEnviadosWAM:sum 	0
attr interpolationmode  none
attr source  enviadosWAM
attr title  "Paquetes enviados WAM, sum"
scalar WirelessNetworkMU.node[95].net 	paquetesEnviadosAMR:sum 	0
attr interpolationmode  none
attr source  enviadosAMR
attr title  "Paquetes enviados AMR, sum"
scalar WirelessNetworkMU.node[95].routing 	forwardedRTP:sum 	0
attr interpolationmode  none
attr source  fwdRTP
attr title  "Forwarded RTP, sum"
scalar WirelessNetworkMU.node[95].routing 	forwardedWAM:sum 	0
attr interpolationmode  none
attr source  fwdWAM
attr title  "Forwarded WAM, sum"
scalar WirelessNetworkMU.node[95].routing 	forwardedAMR:sum 	0
attr interpolationmode  none
attr source  fwdAMR
attr title  "Forwarded AMR, sum"
scalar WirelessNetworkMU.node[95].wlan.mac 	nbTxFrames 	0
scalar WirelessNetworkMU.node[95].wlan.mac 	nbRxFrames 	0
scalar WirelessNetworkMU.node[95].wlan.mac 	nbDroppedFrames 	0
scalar WirelessNetworkMU.node[95].wlan.mac 	nbMissedAcks 	0
scalar WirelessNetworkMU.node[95].wlan.mac 	nbRecvdAcks 	0
scalar WirelessNetworkMU.node[95].wlan.mac 	nbTxAcks 	0
scalar WirelessNetworkMU.node[95].wlan.mac 	nbDuplicates 	0
scalar WirelessNetworkMU.node[95].wlan.mac 	meanBackoff 	0
scalar WirelessNetworkMU.node[95].wlan.mac 	nbBackoffs 	0
scalar WirelessNetworkMU.node[95].wlan.mac 	backoffDurations 	0
scalar WirelessNetworkMU.node[95].wlan.phy 	nbFramesWithInterference 	0
scalar WirelessNetworkMU.node[95].wlan.phy 	nbFramesWithoutInterference 	8
scalar WirelessNetworkMU.node[95].wlan.phy 	nbFramesWithInterferencePartial 	0
scalar WirelessNetworkMU.node[95].wlan.phy 	nbFramesWithoutInterferencePartial 	0
scalar WirelessNetworkMU.node[95].wlan.phy 	nbFramesWithInterferenceDropped 	0
scalar WirelessNetworkMU.node[95].wlan.phy 	nbFramesWithoutInterferenceDropped 	0
scalar WirelessNetworkMU.node[95].batteryStats 	nominal 	1187988120
attr unit  mW-s
scalar WirelessNetworkMU.node[95].batteryStats 	total 	68.174548387527
attr unit  mW-s
scalar WirelessNetworkMU.node[95].batteryStats 	lifetime 	-1
attr unit  s
scalar WirelessNetworkMU.node[95].batteryStats 	"Mean power consumption" 	62.039999941712
attr unit  mW
statistic WirelessNetworkMU.node[96].net 	endToEndDelayRTP:stats
field count 0
field mean 0
field stddev -1.#IND
field sum 0
field sqrsum 0
field min 0
field max 0
attr interpolationmode  none
attr source  endToEndDelayRTP
attr title  "end-to-end delay RTP, stats"
attr unit  s
scalar WirelessNetworkMU.node[96].net 	paquetesRecibidosRTP:sum 	0
attr interpolationmode  none
attr source  recibidosRTP
attr title  "Paquetes recibidos RTP, sum"
scalar WirelessNetworkMU.node[96].net 	paquetesEnviadosWAM:sum 	0
attr interpolationmode  none
attr source  enviadosWAM
attr title  "Paquetes enviados WAM, sum"
scalar WirelessNetworkMU.node[96].net 	paquetesEnviadosAMR:sum 	0
attr interpolationmode  none
attr source  enviadosAMR
attr title  "Paquetes enviados AMR, sum"
scalar WirelessNetworkMU.node[96].routing 	forwardedRTP:sum 	0
attr interpolationmode  none
attr source  fwdRTP
attr title  "Forwarded RTP, sum"
scalar WirelessNetworkMU.node[96].routing 	forwardedWAM:sum 	0
attr interpolationmode  none
attr source  fwdWAM
attr title  "Forwarded WAM, sum"
scalar WirelessNetworkMU.node[96].routing 	forwardedAMR:sum 	0
attr interpolationmode  none
attr source  fwdAMR
attr title  "Forwarded AMR, sum"
scalar WirelessNetworkMU.node[96].wlan.mac 	nbTxFrames 	1
scalar WirelessNetworkMU.node[96].wlan.mac 	nbRxFrames 	1
scalar WirelessNetworkMU.node[96].wlan.mac 	nbDroppedFrames 	0
scalar WirelessNetworkMU.node[96].wlan.mac 	nbMissedAcks 	0
scalar WirelessNetworkMU.node[96].wlan.mac 	nbRecvdAcks 	0
scalar WirelessNetworkMU.node[96].wlan.mac 	nbTxAcks 	1
scalar WirelessNetworkMU.node[96].wlan.mac 	nbDuplicates 	0
scalar WirelessNetworkMU.node[96].wlan.mac 	meanBackoff 	0.00128
scalar WirelessNetworkMU.node[96].wlan.mac 	nbBackoffs 	1
scalar WirelessNetworkMU.node[96].wlan.mac 	backoffDurations 	0.00128
scalar WirelessNetworkMU.node[96].wlan.phy 	nbFramesWithInterference 	0
scalar WirelessNetworkMU.node[96].wlan.phy 	nbFramesWithoutInterference 	7
scalar WirelessNetworkMU.node[96].wlan.phy 	nbFramesWithInterferencePartial 	0
scalar WirelessNetworkMU.node[96].wlan.phy 	nbFramesWithoutInterferencePartial 	0
scalar WirelessNetworkMU.node[96].wlan.phy 	nbFramesWithInterferenceDropped 	0
scalar WirelessNetworkMU.node[96].wlan.phy 	nbFramesWithoutInterferenceDropped 	0
scalar WirelessNetworkMU.node[96].batteryStats 	nominal 	1187988120
attr unit  mW-s
scalar WirelessNetworkMU.node[96].batteryStats 	total 	68.172034978867
attr unit  mW-s
scalar WirelessNetworkMU.node[96].batteryStats 	lifetime 	-1
attr unit  s
scalar WirelessNetworkMU.node[96].batteryStats 	"Mean power consumption" 	62.037712697031
attr unit  mW
statistic WirelessNetworkMU.node[97].net 	endToEndDelayRTP:stats
field count 0
field mean 0
field stddev -1.#IND
field sum 0
field sqrsum 0
field min 0
field max 0
attr interpolationmode  none
attr source  endToEndDelayRTP
attr title  "end-to-end delay RTP, stats"
attr unit  s
scalar WirelessNetworkMU.node[97].net 	paquetesRecibidosRTP:sum 	0
attr interpolationmode  none
attr source  recibidosRTP
attr title  "Paquetes recibidos RTP, sum"
scalar WirelessNetworkMU.node[97].net 	paquetesEnviadosWAM:sum 	0
attr interpolationmode  none
attr source  enviadosWAM
attr title  "Paquetes enviados WAM, sum"
scalar WirelessNetworkMU.node[97].net 	paquetesEnviadosAMR:sum 	0
attr interpolationmode  none
attr source  enviadosAMR
attr title  "Paquetes enviados AMR, sum"
scalar WirelessNetworkMU.node[97].routing 	forwardedRTP:sum 	0
attr interpolationmode  none
attr source  fwdRTP
attr title  "Forwarded RTP, sum"
scalar WirelessNetworkMU.node[97].routing 	forwardedWAM:sum 	0
attr interpolationmode  none
attr source  fwdWAM
attr title  "Forwarded WAM, sum"
scalar WirelessNetworkMU.node[97].routing 	forwardedAMR:sum 	0
attr interpolationmode  none
attr source  fwdAMR
attr title  "Forwarded AMR, sum"
scalar WirelessNetworkMU.node[97].wlan.mac 	nbTxFrames 	0
scalar WirelessNetworkMU.node[97].wlan.mac 	nbRxFrames 	0
scalar WirelessNetworkMU.node[97].wlan.mac 	nbDroppedFrames 	0
scalar WirelessNetworkMU.node[97].wlan.mac 	nbMissedAcks 	0
scalar WirelessNetworkMU.node[97].wlan.mac 	nbRecvdAcks 	0
scalar WirelessNetworkMU.node[97].wlan.mac 	nbTxAcks 	0
scalar WirelessNetworkMU.node[97].wlan.mac 	nbDuplicates 	0
scalar WirelessNetworkMU.node[97].wlan.mac 	meanBackoff 	0
scalar WirelessNetworkMU.node[97].wlan.mac 	nbBackoffs 	0
scalar WirelessNetworkMU.node[97].wlan.mac 	backoffDurations 	0
scalar WirelessNetworkMU.node[97].wlan.phy 	nbFramesWithInterference 	0
scalar WirelessNetworkMU.node[97].wlan.phy 	nbFramesWithoutInterference 	8
scalar WirelessNetworkMU.node[97].wlan.phy 	nbFramesWithInterferencePartial 	0
scalar WirelessNetworkMU.node[97].wlan.phy 	nbFramesWithoutInterferencePartial 	0
scalar WirelessNetworkMU.node[97].wlan.phy 	nbFramesWithInterferenceDropped 	0
scalar WirelessNetworkMU.node[97].wlan.phy 	nbFramesWithoutInterferenceDropped 	0
scalar WirelessNetworkMU.node[97].batteryStats 	nominal 	1187988120
attr unit  mW-s
scalar WirelessNetworkMU.node[97].batteryStats 	total 	68.174548387527
attr unit  mW-s
scalar WirelessNetworkMU.node[97].batteryStats 	lifetime 	-1
attr unit  s
scalar WirelessNetworkMU.node[97].batteryStats 	"Mean power consumption" 	62.039999941712
attr unit  mW
statistic WirelessNetworkMU.node[98].net 	endToEndDelayRTP:stats
field count 0
field mean 0
field stddev -1.#IND
field sum 0
field sqrsum 0
field min 0
field max 0
attr interpolationmode  none
attr source  endToEndDelayRTP
attr title  "end-to-end delay RTP, stats"
attr unit  s
scalar WirelessNetworkMU.node[98].net 	paquetesRecibidosRTP:sum 	0
attr interpolationmode  none
attr source  recibidosRTP
attr title  "Paquetes recibidos RTP, sum"
scalar WirelessNetworkMU.node[98].net 	paquetesEnviadosWAM:sum 	0
attr interpolationmode  none
attr source  enviadosWAM
attr title  "Paquetes enviados WAM, sum"
scalar WirelessNetworkMU.node[98].net 	paquetesEnviadosAMR:sum 	0
attr interpolationmode  none
attr source  enviadosAMR
attr title  "Paquetes enviados AMR, sum"
scalar WirelessNetworkMU.node[98].routing 	forwardedRTP:sum 	0
attr interpolationmode  none
attr source  fwdRTP
attr title  "Forwarded RTP, sum"
scalar WirelessNetworkMU.node[98].routing 	forwardedWAM:sum 	0
attr interpolationmode  none
attr source  fwdWAM
attr title  "Forwarded WAM, sum"
scalar WirelessNetworkMU.node[98].routing 	forwardedAMR:sum 	0
attr interpolationmode  none
attr source  fwdAMR
attr title  "Forwarded AMR, sum"
scalar WirelessNetworkMU.node[98].wlan.mac 	nbTxFrames 	0
scalar WirelessNetworkMU.node[98].wlan.mac 	nbRxFrames 	0
scalar WirelessNetworkMU.node[98].wlan.mac 	nbDroppedFrames 	0
scalar WirelessNetworkMU.node[98].wlan.mac 	nbMissedAcks 	0
scalar WirelessNetworkMU.node[98].wlan.mac 	nbRecvdAcks 	0
scalar WirelessNetworkMU.node[98].wlan.mac 	nbTxAcks 	0
scalar WirelessNetworkMU.node[98].wlan.mac 	nbDuplicates 	0
scalar WirelessNetworkMU.node[98].wlan.mac 	meanBackoff 	0
scalar WirelessNetworkMU.node[98].wlan.mac 	nbBackoffs 	0
scalar WirelessNetworkMU.node[98].wlan.mac 	backoffDurations 	0
scalar WirelessNetworkMU.node[98].wlan.phy 	nbFramesWithInterference 	0
scalar WirelessNetworkMU.node[98].wlan.phy 	nbFramesWithoutInterference 	8
scalar WirelessNetworkMU.node[98].wlan.phy 	nbFramesWithInterferencePartial 	0
scalar WirelessNetworkMU.node[98].wlan.phy 	nbFramesWithoutInterferencePartial 	0
scalar WirelessNetworkMU.node[98].wlan.phy 	nbFramesWithInterferenceDropped 	0
scalar WirelessNetworkMU.node[98].wlan.phy 	nbFramesWithoutInterferenceDropped 	0
scalar WirelessNetworkMU.node[98].batteryStats 	nominal 	1187988120
attr unit  mW-s
scalar WirelessNetworkMU.node[98].batteryStats 	total 	68.174548387527
attr unit  mW-s
scalar WirelessNetworkMU.node[98].batteryStats 	lifetime 	-1
attr unit  s
scalar WirelessNetworkMU.node[98].batteryStats 	"Mean power consumption" 	62.039999941712
attr unit  mW
statistic WirelessNetworkMU.node[99].net 	endToEndDelayRTP:stats
field count 0
field mean 0
field stddev -1.#IND
field sum 0
field sqrsum 0
field min 0
field max 0
attr interpolationmode  none
attr source  endToEndDelayRTP
attr title  "end-to-end delay RTP, stats"
attr unit  s
scalar WirelessNetworkMU.node[99].net 	paquetesRecibidosRTP:sum 	0
attr interpolationmode  none
attr source  recibidosRTP
attr title  "Paquetes recibidos RTP, sum"
scalar WirelessNetworkMU.node[99].net 	paquetesEnviadosWAM:sum 	0
attr interpolationmode  none
attr source  enviadosWAM
attr title  "Paquetes enviados WAM, sum"
scalar WirelessNetworkMU.node[99].net 	paquetesEnviadosAMR:sum 	0
attr interpolationmode  none
attr source  enviadosAMR
attr title  "Paquetes enviados AMR, sum"
scalar WirelessNetworkMU.node[99].routing 	forwardedRTP:sum 	0
attr interpolationmode  none
attr source  fwdRTP
attr title  "Forwarded RTP, sum"
scalar WirelessNetworkMU.node[99].routing 	forwardedWAM:sum 	0
attr interpolationmode  none
attr source  fwdWAM
attr title  "Forwarded WAM, sum"
scalar WirelessNetworkMU.node[99].routing 	forwardedAMR:sum 	0
attr interpolationmode  none
attr source  fwdAMR
attr title  "Forwarded AMR, sum"
scalar WirelessNetworkMU.node[99].wlan.mac 	nbTxFrames 	0
scalar WirelessNetworkMU.node[99].wlan.mac 	nbRxFrames 	0
scalar WirelessNetworkMU.node[99].wlan.mac 	nbDroppedFrames 	0
scalar WirelessNetworkMU.node[99].wlan.mac 	nbMissedAcks 	0
scalar WirelessNetworkMU.node[99].wlan.mac 	nbRecvdAcks 	0
scalar WirelessNetworkMU.node[99].wlan.mac 	nbTxAcks 	0
scalar WirelessNetworkMU.node[99].wlan.mac 	nbDuplicates 	0
scalar WirelessNetworkMU.node[99].wlan.mac 	meanBackoff 	0
scalar WirelessNetworkMU.node[99].wlan.mac 	nbBackoffs 	0
scalar WirelessNetworkMU.node[99].wlan.mac 	backoffDurations 	0
scalar WirelessNetworkMU.node[99].wlan.phy 	nbFramesWithInterference 	0
scalar WirelessNetworkMU.node[99].wlan.phy 	nbFramesWithoutInterference 	8
scalar WirelessNetworkMU.node[99].wlan.phy 	nbFramesWithInterferencePartial 	0
scalar WirelessNetworkMU.node[99].wlan.phy 	nbFramesWithoutInterferencePartial 	0
scalar WirelessNetworkMU.node[99].wlan.phy 	nbFramesWithInterferenceDropped 	0
scalar WirelessNetworkMU.node[99].wlan.phy 	nbFramesWithoutInterferenceDropped 	0
scalar WirelessNetworkMU.node[99].batteryStats 	nominal 	1187988120
attr unit  mW-s
scalar WirelessNetworkMU.node[99].batteryStats 	total 	68.174548387527
attr unit  mW-s
scalar WirelessNetworkMU.node[99].batteryStats 	lifetime 	-1
attr unit  s
scalar WirelessNetworkMU.node[99].batteryStats 	"Mean power consumption" 	62.039999941712
attr unit  mW
scalar WirelessNetworkMU.colectores[0].netColector 	hopCount:mean 	-1.#IND
attr interpolationmode  none
attr title  "hop count of arrived packets, mean"
scalar WirelessNetworkMU.colectores[0].netColector 	hopCount:max 	-1.#IND
attr interpolationmode  none
attr title  "hop count of arrived packets, max"
statistic WirelessNetworkMU.colectores[0].netColector 	endToEndDelayWAM:stats
field count 0
field mean 0
field stddev -1.#IND
field sum 0
field sqrsum 0
field min 0
field max 0
attr interpolationmode  none
attr source  endToEndDelayWAM
attr title  "end-to-end delay WAM, stats"
attr unit  s
statistic WirelessNetworkMU.colectores[0].netColector 	endToEndDelayAMR:stats
field count 0
field mean 0
field stddev -1.#IND
field sum 0
field sqrsum 0
field min 0
field max 0
attr interpolationmode  none
attr source  endToEndDelayAMR
attr title  "end-to-end delay AMR, stats"
attr unit  s
scalar WirelessNetworkMU.colectores[0].netColector 	paquetesRecibidosWAM:sum 	0
attr interpolationmode  none
attr source  recibidosWAM
attr title  "Paquetes recibidos WAM, sum"
scalar WirelessNetworkMU.colectores[0].netColector 	paquetesRecibidosAMR:sum 	0
attr interpolationmode  none
attr source  recibidosAMR
attr title  "Paquetes recibidos AMR, sum"
scalar WirelessNetworkMU.colectores[0].netColector 	paquetesEnviadosRTP:sum 	0
attr interpolationmode  none
attr source  enviadosRTP
attr title  "Paquetes enviados RTP, sum"
scalar WirelessNetworkMU.colectores[0].routing 	forwardedRTP:sum 	0
attr interpolationmode  none
attr source  fwdRTP
attr title  "Forwarded RTP, sum"
scalar WirelessNetworkMU.colectores[0].routing 	forwardedWAM:sum 	0
attr interpolationmode  none
attr source  fwdWAM
attr title  "Forwarded WAM, sum"
scalar WirelessNetworkMU.colectores[0].routing 	forwardedAMR:sum 	0
attr interpolationmode  none
attr source  fwdAMR
attr title  "Forwarded AMR, sum"
scalar WirelessNetworkMU.colectores[0].wlan.mac 	nbTxFrames 	0
scalar WirelessNetworkMU.colectores[0].wlan.mac 	nbRxFrames 	0
scalar WirelessNetworkMU.colectores[0].wlan.mac 	nbDroppedFrames 	0
scalar WirelessNetworkMU.colectores[0].wlan.mac 	nbMissedAcks 	0
scalar WirelessNetworkMU.colectores[0].wlan.mac 	nbRecvdAcks 	0
scalar WirelessNetworkMU.colectores[0].wlan.mac 	nbTxAcks 	0
scalar WirelessNetworkMU.colectores[0].wlan.mac 	nbDuplicates 	0
scalar WirelessNetworkMU.colectores[0].wlan.mac 	meanBackoff 	0
scalar WirelessNetworkMU.colectores[0].wlan.mac 	nbBackoffs 	0
scalar WirelessNetworkMU.colectores[0].wlan.mac 	backoffDurations 	0
scalar WirelessNetworkMU.colectores[0].wlan.phy 	nbFramesWithInterference 	0
scalar WirelessNetworkMU.colectores[0].wlan.phy 	nbFramesWithoutInterference 	8
scalar WirelessNetworkMU.colectores[0].wlan.phy 	nbFramesWithInterferencePartial 	0
scalar WirelessNetworkMU.colectores[0].wlan.phy 	nbFramesWithoutInterferencePartial 	0
scalar WirelessNetworkMU.colectores[0].wlan.phy 	nbFramesWithInterferenceDropped 	0
scalar WirelessNetworkMU.colectores[0].wlan.phy 	nbFramesWithoutInterferenceDropped 	0
scalar WirelessNetworkMU.colectores[0].batteryStats 	nominal 	1187988120
attr unit  mW-s
scalar WirelessNetworkMU.colectores[0].batteryStats 	total 	68.174548387527
attr unit  mW-s
scalar WirelessNetworkMU.colectores[0].batteryStats 	lifetime 	-1
attr unit  s
scalar WirelessNetworkMU.colectores[0].batteryStats 	"Mean power consumption" 	62.039999941712
attr unit  mW
scalar WirelessNetworkMU 	avgDelay:mean 	-1.#IND
attr source  endToEndDelay
attr title  "averageDelay, mean"
statistic WirelessNetworkMU 	avgDelay:stats
field count 0
field mean 0
field stddev -1.#IND
field sum 0
field sqrsum 0
field min 0
field max 0
attr source  endToEndDelay
attr title  "averageDelay, stats"
scalar WirelessNetworkMU 	traffic:count 	0
attr source  dataTraffic
attr title  "Data Traffic, count"
scalar WirelessNetworkMU 	traffic:sum 	0
attr source  dataTraffic
attr title  "Data Traffic, sum"
scalar WirelessNetworkMU 	overhead:count 	0
attr source  controlOverhead
attr title  "Control overhead, count"
scalar WirelessNetworkMU 	overhead:sum 	0
attr source  controlOverhead
attr title  "Control overhead, sum"
statistic WirelessNetworkMU 	sending:stats
field count 0
field mean 0
field stddev -1.#IND
field sum 0
field sqrsum 0
field min 0
field max 0
attr source  timeSending
attr title  "timeSending, stats"
statistic WirelessNetworkMU 	convergence:stats
field count 0
field mean 0
field stddev -1.#IND
field sum 0
field sqrsum 0
field min 0
field max 0
attr source  convergenceTime
attr title  "Convergence, stats"
scalar WirelessNetworkMU 	numOfBroadcastRecvd:sum 	0
attr source  broadcastRecvd
attr title  "Total Broadcast Recvd, sum"
scalar WirelessNetworkMU 	receivedPackets:sum 	0
attr source  pktsReceived
attr title  "numOfPacketsReceived, sum"
scalar WirelessNetworkMU 	sentPackets:sum 	0
attr source  pktsSent
attr title  "numOfPacketsSent, sum"
