version 2
run Mesh60NodesPrueba3-0-20141217-13:54:24-2916
attr configname Mesh60NodesPrueba3
attr datetime 20141217-13:54:24
attr experiment Mesh60NodesPrueba3
attr inifile pruebawirelessmu.ini
attr iterationvars "$0=200, $1=0.04, $2=300"
attr iterationvars2 "$0=200, $1=0.04, $2=300, $repetition=0"
attr measurement "$0=200, $1=0.04, $2=300"
attr network WirelessNetworkMU
attr processid 2916
attr repetition 0
attr replication #0
attr resultdir results
attr runnumber 0
attr seedset 0

statistic WirelessNetworkMU.node[0].net 	endToEndDelayRTP:stats
field count 0
field mean 0
field stddev -1.#IND
field sum 0
field sqrsum 0
field min 0
field max 0
attr interpolationmode  none
attr source  endToEndDelayRTP
attr title  "end-to-end delay RTP, stats"
attr unit  s
scalar WirelessNetworkMU.node[0].net 	paquetesRecibidosRTP:sum 	0
attr interpolationmode  none
attr source  recibidosRTP
attr title  "Paquetes recibidos RTP, sum"
scalar WirelessNetworkMU.node[0].net 	paquetesEnviadosWAM:sum 	7824
attr interpolationmode  none
attr source  enviadosWAM
attr title  "Paquetes enviados WAM, sum"
scalar WirelessNetworkMU.node[0].net 	paquetesEnviadosAMR:sum 	2
attr interpolationmode  none
attr source  enviadosAMR
attr title  "Paquetes enviados AMR, sum"
scalar WirelessNetworkMU.node[0].routing 	forwardedRTP:sum 	0
attr interpolationmode  none
attr source  fwdRTP
attr title  "Forwarded RTP, sum"
scalar WirelessNetworkMU.node[0].routing 	forwardedWAM:sum 	0
attr interpolationmode  none
attr source  fwdWAM
attr title  "Forwarded WAM, sum"
scalar WirelessNetworkMU.node[0].routing 	forwardedAMR:sum 	0
attr interpolationmode  none
attr source  fwdAMR
attr title  "Forwarded AMR, sum"
scalar WirelessNetworkMU.node[0].wlan.mac 	nbTxFrames 	6168
scalar WirelessNetworkMU.node[0].wlan.mac 	nbRxFrames 	61
scalar WirelessNetworkMU.node[0].wlan.mac 	nbDroppedFrames 	7064
scalar WirelessNetworkMU.node[0].wlan.mac 	nbMissedAcks 	5016
scalar WirelessNetworkMU.node[0].wlan.mac 	nbRecvdAcks 	1152
scalar WirelessNetworkMU.node[0].wlan.mac 	nbTxAcks 	6921
scalar WirelessNetworkMU.node[0].wlan.mac 	nbDuplicates 	119
scalar WirelessNetworkMU.node[0].wlan.mac 	meanBackoff 	0.0034740523673859
scalar WirelessNetworkMU.node[0].wlan.mac 	nbBackoffs 	58968
scalar WirelessNetworkMU.node[0].wlan.mac 	backoffDurations 	204.85792000001
scalar WirelessNetworkMU.node[0].wlan.phy 	nbFramesWithInterference 	36605
scalar WirelessNetworkMU.node[0].wlan.phy 	nbFramesWithoutInterference 	27225
scalar WirelessNetworkMU.node[0].wlan.phy 	nbFramesWithInterferencePartial 	9855
scalar WirelessNetworkMU.node[0].wlan.phy 	nbFramesWithoutInterferencePartial 	6427
scalar WirelessNetworkMU.node[0].wlan.phy 	nbFramesWithInterferenceDropped 	54207
scalar WirelessNetworkMU.node[0].wlan.phy 	nbFramesWithoutInterferenceDropped 	5708
scalar WirelessNetworkMU.node[0].batteryStats 	nominal 	1187988120
attr unit  mW-s
scalar WirelessNetworkMU.node[0].batteryStats 	total 	19785.806960106
attr unit  mW-s
scalar WirelessNetworkMU.node[0].batteryStats 	lifetime 	-1
attr unit  s
scalar WirelessNetworkMU.node[0].batteryStats 	"Mean power consumption" 	61.830643384289
attr unit  mW
statistic WirelessNetworkMU.node[1].net 	endToEndDelayRTP:stats
field count 0
field mean 0
field stddev -1.#IND
field sum 0
field sqrsum 0
field min 0
field max 0
attr interpolationmode  none
attr source  endToEndDelayRTP
attr title  "end-to-end delay RTP, stats"
attr unit  s
scalar WirelessNetworkMU.node[1].net 	paquetesRecibidosRTP:sum 	0
attr interpolationmode  none
attr source  recibidosRTP
attr title  "Paquetes recibidos RTP, sum"
scalar WirelessNetworkMU.node[1].net 	paquetesEnviadosWAM:sum 	7904
attr interpolationmode  none
attr source  enviadosWAM
attr title  "Paquetes enviados WAM, sum"
scalar WirelessNetworkMU.node[1].net 	paquetesEnviadosAMR:sum 	2
attr interpolationmode  none
attr source  enviadosAMR
attr title  "Paquetes enviados AMR, sum"
scalar WirelessNetworkMU.node[1].routing 	forwardedRTP:sum 	0
attr interpolationmode  none
attr source  fwdRTP
attr title  "Forwarded RTP, sum"
scalar WirelessNetworkMU.node[1].routing 	forwardedWAM:sum 	0
attr interpolationmode  none
attr source  fwdWAM
attr title  "Forwarded WAM, sum"
scalar WirelessNetworkMU.node[1].routing 	forwardedAMR:sum 	0
attr interpolationmode  none
attr source  fwdAMR
attr title  "Forwarded AMR, sum"
scalar WirelessNetworkMU.node[1].wlan.mac 	nbTxFrames 	6912
scalar WirelessNetworkMU.node[1].wlan.mac 	nbRxFrames 	27
scalar WirelessNetworkMU.node[1].wlan.mac 	nbDroppedFrames 	5912
scalar WirelessNetworkMU.node[1].wlan.mac 	nbMissedAcks 	6064
scalar WirelessNetworkMU.node[1].wlan.mac 	nbRecvdAcks 	848
scalar WirelessNetworkMU.node[1].wlan.mac 	nbTxAcks 	16394
scalar WirelessNetworkMU.node[1].wlan.mac 	nbDuplicates 	422
scalar WirelessNetworkMU.node[1].wlan.mac 	meanBackoff 	0.0035035810314947
scalar WirelessNetworkMU.node[1].wlan.mac 	nbBackoffs 	64043
scalar WirelessNetworkMU.node[1].wlan.mac 	backoffDurations 	224.37984000002
scalar WirelessNetworkMU.node[1].wlan.phy 	nbFramesWithInterference 	31860
scalar WirelessNetworkMU.node[1].wlan.phy 	nbFramesWithoutInterference 	30821
scalar WirelessNetworkMU.node[1].wlan.phy 	nbFramesWithInterferencePartial 	6073
scalar WirelessNetworkMU.node[1].wlan.phy 	nbFramesWithoutInterferencePartial 	3186
scalar WirelessNetworkMU.node[1].wlan.phy 	nbFramesWithInterferenceDropped 	40880
scalar WirelessNetworkMU.node[1].wlan.phy 	nbFramesWithoutInterferenceDropped 	3642
scalar WirelessNetworkMU.node[1].batteryStats 	nominal 	1187988120
attr unit  mW-s
scalar WirelessNetworkMU.node[1].batteryStats 	total 	19763.737542152
attr unit  mW-s
scalar WirelessNetworkMU.node[1].batteryStats 	lifetime 	-1
attr unit  s
scalar WirelessNetworkMU.node[1].batteryStats 	"Mean power consumption" 	61.761676456939
attr unit  mW
statistic WirelessNetworkMU.node[2].net 	endToEndDelayRTP:stats
field count 0
field mean 0
field stddev -1.#IND
field sum 0
field sqrsum 0
field min 0
field max 0
attr interpolationmode  none
attr source  endToEndDelayRTP
attr title  "end-to-end delay RTP, stats"
attr unit  s
scalar WirelessNetworkMU.node[2].net 	paquetesRecibidosRTP:sum 	0
attr interpolationmode  none
attr source  recibidosRTP
attr title  "Paquetes recibidos RTP, sum"
scalar WirelessNetworkMU.node[2].net 	paquetesEnviadosWAM:sum 	7800
attr interpolationmode  none
attr source  enviadosWAM
attr title  "Paquetes enviados WAM, sum"
scalar WirelessNetworkMU.node[2].net 	paquetesEnviadosAMR:sum 	2
attr interpolationmode  none
attr source  enviadosAMR
attr title  "Paquetes enviados AMR, sum"
scalar WirelessNetworkMU.node[2].routing 	forwardedRTP:sum 	0
attr interpolationmode  none
attr source  fwdRTP
attr title  "Forwarded RTP, sum"
scalar WirelessNetworkMU.node[2].routing 	forwardedWAM:sum 	0
attr interpolationmode  none
attr source  fwdWAM
attr title  "Forwarded WAM, sum"
scalar WirelessNetworkMU.node[2].routing 	forwardedAMR:sum 	0
attr interpolationmode  none
attr source  fwdAMR
attr title  "Forwarded AMR, sum"
scalar WirelessNetworkMU.node[2].wlan.mac 	nbTxFrames 	12836
scalar WirelessNetworkMU.node[2].wlan.mac 	nbRxFrames 	0
scalar WirelessNetworkMU.node[2].wlan.mac 	nbDroppedFrames 	4706
scalar WirelessNetworkMU.node[2].wlan.mac 	nbMissedAcks 	11099
scalar WirelessNetworkMU.node[2].wlan.mac 	nbRecvdAcks 	1737
scalar WirelessNetworkMU.node[2].wlan.mac 	nbTxAcks 	0
scalar WirelessNetworkMU.node[2].wlan.mac 	nbDuplicates 	0
scalar WirelessNetworkMU.node[2].wlan.mac 	meanBackoff 	0.0031211451645175
scalar WirelessNetworkMU.node[2].wlan.mac 	nbBackoffs 	54979
scalar WirelessNetworkMU.node[2].wlan.mac 	backoffDurations 	171.59744000001
scalar WirelessNetworkMU.node[2].wlan.phy 	nbFramesWithInterference 	28902
scalar WirelessNetworkMU.node[2].wlan.phy 	nbFramesWithoutInterference 	47414
scalar WirelessNetworkMU.node[2].wlan.phy 	nbFramesWithInterferencePartial 	4524
scalar WirelessNetworkMU.node[2].wlan.phy 	nbFramesWithoutInterferencePartial 	2291
scalar WirelessNetworkMU.node[2].wlan.phy 	nbFramesWithInterferenceDropped 	29344
scalar WirelessNetworkMU.node[2].wlan.phy 	nbFramesWithoutInterferenceDropped 	3343
scalar WirelessNetworkMU.node[2].batteryStats 	nominal 	1187988120
attr unit  mW-s
scalar WirelessNetworkMU.node[2].batteryStats 	total 	19736.951014519
attr unit  mW-s
scalar WirelessNetworkMU.node[2].batteryStats 	lifetime 	-1
attr unit  s
scalar WirelessNetworkMU.node[2].batteryStats 	"Mean power consumption" 	61.677968562641
attr unit  mW
statistic WirelessNetworkMU.node[3].net 	endToEndDelayRTP:stats
field count 0
field mean 0
field stddev -1.#IND
field sum 0
field sqrsum 0
field min 0
field max 0
attr interpolationmode  none
attr source  endToEndDelayRTP
attr title  "end-to-end delay RTP, stats"
attr unit  s
scalar WirelessNetworkMU.node[3].net 	paquetesRecibidosRTP:sum 	0
attr interpolationmode  none
attr source  recibidosRTP
attr title  "Paquetes recibidos RTP, sum"
scalar WirelessNetworkMU.node[3].net 	paquetesEnviadosWAM:sum 	7762
attr interpolationmode  none
attr source  enviadosWAM
attr title  "Paquetes enviados WAM, sum"
scalar WirelessNetworkMU.node[3].net 	paquetesEnviadosAMR:sum 	2
attr interpolationmode  none
attr source  enviadosAMR
attr title  "Paquetes enviados AMR, sum"
scalar WirelessNetworkMU.node[3].routing 	forwardedRTP:sum 	0
attr interpolationmode  none
attr source  fwdRTP
attr title  "Forwarded RTP, sum"
scalar WirelessNetworkMU.node[3].routing 	forwardedWAM:sum 	0
attr interpolationmode  none
attr source  fwdWAM
attr title  "Forwarded WAM, sum"
scalar WirelessNetworkMU.node[3].routing 	forwardedAMR:sum 	0
attr interpolationmode  none
attr source  fwdAMR
attr title  "Forwarded AMR, sum"
scalar WirelessNetworkMU.node[3].wlan.mac 	nbTxFrames 	12145
scalar WirelessNetworkMU.node[3].wlan.mac 	nbRxFrames 	0
scalar WirelessNetworkMU.node[3].wlan.mac 	nbDroppedFrames 	4959
scalar WirelessNetworkMU.node[3].wlan.mac 	nbMissedAcks 	10168
scalar WirelessNetworkMU.node[3].wlan.mac 	nbRecvdAcks 	1977
scalar WirelessNetworkMU.node[3].wlan.mac 	nbTxAcks 	0
scalar WirelessNetworkMU.node[3].wlan.mac 	nbDuplicates 	0
scalar WirelessNetworkMU.node[3].wlan.mac 	meanBackoff 	0.0031531822832921
scalar WirelessNetworkMU.node[3].wlan.mac 	nbBackoffs 	54728
scalar WirelessNetworkMU.node[3].wlan.mac 	backoffDurations 	172.56736000001
scalar WirelessNetworkMU.node[3].wlan.phy 	nbFramesWithInterference 	30150
scalar WirelessNetworkMU.node[3].wlan.phy 	nbFramesWithoutInterference 	41582
scalar WirelessNetworkMU.node[3].wlan.phy 	nbFramesWithInterferencePartial 	4732
scalar WirelessNetworkMU.node[3].wlan.phy 	nbFramesWithoutInterferencePartial 	2618
scalar WirelessNetworkMU.node[3].wlan.phy 	nbFramesWithInterferenceDropped 	32390
scalar WirelessNetworkMU.node[3].wlan.phy 	nbFramesWithoutInterferenceDropped 	3567
scalar WirelessNetworkMU.node[3].batteryStats 	nominal 	1187988120
attr unit  mW-s
scalar WirelessNetworkMU.node[3].batteryStats 	total 	19743.091552973
attr unit  mW-s
scalar WirelessNetworkMU.node[3].batteryStats 	lifetime 	-1
attr unit  s
scalar WirelessNetworkMU.node[3].batteryStats 	"Mean power consumption" 	61.697157744265
attr unit  mW
statistic WirelessNetworkMU.node[4].net 	endToEndDelayRTP:stats
field count 0
field mean 0
field stddev -1.#IND
field sum 0
field sqrsum 0
field min 0
field max 0
attr interpolationmode  none
attr source  endToEndDelayRTP
attr title  "end-to-end delay RTP, stats"
attr unit  s
scalar WirelessNetworkMU.node[4].net 	paquetesRecibidosRTP:sum 	0
attr interpolationmode  none
attr source  recibidosRTP
attr title  "Paquetes recibidos RTP, sum"
scalar WirelessNetworkMU.node[4].net 	paquetesEnviadosWAM:sum 	7826
attr interpolationmode  none
attr source  enviadosWAM
attr title  "Paquetes enviados WAM, sum"
scalar WirelessNetworkMU.node[4].net 	paquetesEnviadosAMR:sum 	2
attr interpolationmode  none
attr source  enviadosAMR
attr title  "Paquetes enviados AMR, sum"
scalar WirelessNetworkMU.node[4].routing 	forwardedRTP:sum 	0
attr interpolationmode  none
attr source  fwdRTP
attr title  "Forwarded RTP, sum"
scalar WirelessNetworkMU.node[4].routing 	forwardedWAM:sum 	0
attr interpolationmode  none
attr source  fwdWAM
attr title  "Forwarded WAM, sum"
scalar WirelessNetworkMU.node[4].routing 	forwardedAMR:sum 	0
attr interpolationmode  none
attr source  fwdAMR
attr title  "Forwarded AMR, sum"
scalar WirelessNetworkMU.node[4].wlan.mac 	nbTxFrames 	4986
scalar WirelessNetworkMU.node[4].wlan.mac 	nbRxFrames 	28
scalar WirelessNetworkMU.node[4].wlan.mac 	nbDroppedFrames 	8199
scalar WirelessNetworkMU.node[4].wlan.mac 	nbMissedAcks 	3866
scalar WirelessNetworkMU.node[4].wlan.mac 	nbRecvdAcks 	1120
scalar WirelessNetworkMU.node[4].wlan.mac 	nbTxAcks 	2041
scalar WirelessNetworkMU.node[4].wlan.mac 	nbDuplicates 	12
scalar WirelessNetworkMU.node[4].wlan.mac 	meanBackoff 	0.003489760671108
scalar WirelessNetworkMU.node[4].wlan.mac 	nbBackoffs 	56742
scalar WirelessNetworkMU.node[4].wlan.mac 	backoffDurations 	198.01600000001
scalar WirelessNetworkMU.node[4].wlan.phy 	nbFramesWithInterference 	34439
scalar WirelessNetworkMU.node[4].wlan.phy 	nbFramesWithoutInterference 	22960
scalar WirelessNetworkMU.node[4].wlan.phy 	nbFramesWithInterferencePartial 	12186
scalar WirelessNetworkMU.node[4].wlan.phy 	nbFramesWithoutInterferencePartial 	9645
scalar WirelessNetworkMU.node[4].wlan.phy 	nbFramesWithInterferenceDropped 	64058
scalar WirelessNetworkMU.node[4].wlan.phy 	nbFramesWithoutInterferenceDropped 	6161
scalar WirelessNetworkMU.node[4].batteryStats 	nominal 	1187988120
attr unit  mW-s
scalar WirelessNetworkMU.node[4].batteryStats 	total 	19804.402567863
attr unit  mW-s
scalar WirelessNetworkMU.node[4].batteryStats 	lifetime 	-1
attr unit  s
scalar WirelessNetworkMU.node[4].batteryStats 	"Mean power consumption" 	61.888754655368
attr unit  mW
statistic WirelessNetworkMU.node[5].net 	endToEndDelayRTP:stats
field count 0
field mean 0
field stddev -1.#IND
field sum 0
field sqrsum 0
field min 0
field max 0
attr interpolationmode  none
attr source  endToEndDelayRTP
attr title  "end-to-end delay RTP, stats"
attr unit  s
scalar WirelessNetworkMU.node[5].net 	paquetesRecibidosRTP:sum 	0
attr interpolationmode  none
attr source  recibidosRTP
attr title  "Paquetes recibidos RTP, sum"
scalar WirelessNetworkMU.node[5].net 	paquetesEnviadosWAM:sum 	7972
attr interpolationmode  none
attr source  enviadosWAM
attr title  "Paquetes enviados WAM, sum"
scalar WirelessNetworkMU.node[5].net 	paquetesEnviadosAMR:sum 	2
attr interpolationmode  none
attr source  enviadosAMR
attr title  "Paquetes enviados AMR, sum"
scalar WirelessNetworkMU.node[5].routing 	forwardedRTP:sum 	0
attr interpolationmode  none
attr source  fwdRTP
attr title  "Forwarded RTP, sum"
scalar WirelessNetworkMU.node[5].routing 	forwardedWAM:sum 	0
attr interpolationmode  none
attr source  fwdWAM
attr title  "Forwarded WAM, sum"
scalar WirelessNetworkMU.node[5].routing 	forwardedAMR:sum 	0
attr interpolationmode  none
attr source  fwdAMR
attr title  "Forwarded AMR, sum"
scalar WirelessNetworkMU.node[5].wlan.mac 	nbTxFrames 	6415
scalar WirelessNetworkMU.node[5].wlan.mac 	nbRxFrames 	1
scalar WirelessNetworkMU.node[5].wlan.mac 	nbDroppedFrames 	7347
scalar WirelessNetworkMU.node[5].wlan.mac 	nbMissedAcks 	5286
scalar WirelessNetworkMU.node[5].wlan.mac 	nbRecvdAcks 	1129
scalar WirelessNetworkMU.node[5].wlan.mac 	nbTxAcks 	3958
scalar WirelessNetworkMU.node[5].wlan.mac 	nbDuplicates 	73
scalar WirelessNetworkMU.node[5].wlan.mac 	meanBackoff 	0.0034572754904672
scalar WirelessNetworkMU.node[5].wlan.mac 	nbBackoffs 	57904
scalar WirelessNetworkMU.node[5].wlan.mac 	backoffDurations 	200.19008000001
scalar WirelessNetworkMU.node[5].wlan.phy 	nbFramesWithInterference 	36006
scalar WirelessNetworkMU.node[5].wlan.phy 	nbFramesWithoutInterference 	29495
scalar WirelessNetworkMU.node[5].wlan.phy 	nbFramesWithInterferencePartial 	10395
scalar WirelessNetworkMU.node[5].wlan.phy 	nbFramesWithoutInterferencePartial 	7156
scalar WirelessNetworkMU.node[5].wlan.phy 	nbFramesWithInterferenceDropped 	54849
scalar WirelessNetworkMU.node[5].wlan.phy 	nbFramesWithoutInterferenceDropped 	6048
scalar WirelessNetworkMU.node[5].batteryStats 	nominal 	1187988120
attr unit  mW-s
scalar WirelessNetworkMU.node[5].batteryStats 	total 	19788.443476915
attr unit  mW-s
scalar WirelessNetworkMU.node[5].batteryStats 	lifetime 	-1
attr unit  s
scalar WirelessNetworkMU.node[5].batteryStats 	"Mean power consumption" 	61.83888249887
attr unit  mW
statistic WirelessNetworkMU.node[6].net 	endToEndDelayRTP:stats
field count 0
field mean 0
field stddev -1.#IND
field sum 0
field sqrsum 0
field min 0
field max 0
attr interpolationmode  none
attr source  endToEndDelayRTP
attr title  "end-to-end delay RTP, stats"
attr unit  s
scalar WirelessNetworkMU.node[6].net 	paquetesRecibidosRTP:sum 	0
attr interpolationmode  none
attr source  recibidosRTP
attr title  "Paquetes recibidos RTP, sum"
scalar WirelessNetworkMU.node[6].net 	paquetesEnviadosWAM:sum 	7835
attr interpolationmode  none
attr source  enviadosWAM
attr title  "Paquetes enviados WAM, sum"
scalar WirelessNetworkMU.node[6].net 	paquetesEnviadosAMR:sum 	2
attr interpolationmode  none
attr source  enviadosAMR
attr title  "Paquetes enviados AMR, sum"
scalar WirelessNetworkMU.node[6].routing 	forwardedRTP:sum 	0
attr interpolationmode  none
attr source  fwdRTP
attr title  "Forwarded RTP, sum"
scalar WirelessNetworkMU.node[6].routing 	forwardedWAM:sum 	0
attr interpolationmode  none
attr source  fwdWAM
attr title  "Forwarded WAM, sum"
scalar WirelessNetworkMU.node[6].routing 	forwardedAMR:sum 	0
attr interpolationmode  none
attr source  fwdAMR
attr title  "Forwarded AMR, sum"
scalar WirelessNetworkMU.node[6].wlan.mac 	nbTxFrames 	5057
scalar WirelessNetworkMU.node[6].wlan.mac 	nbRxFrames 	46
scalar WirelessNetworkMU.node[6].wlan.mac 	nbDroppedFrames 	5874
scalar WirelessNetworkMU.node[6].wlan.mac 	nbMissedAcks 	4259
scalar WirelessNetworkMU.node[6].wlan.mac 	nbRecvdAcks 	798
scalar WirelessNetworkMU.node[6].wlan.mac 	nbTxAcks 	25538
scalar WirelessNetworkMU.node[6].wlan.mac 	nbDuplicates 	539
scalar WirelessNetworkMU.node[6].wlan.mac 	meanBackoff 	0.0036457593550085
scalar WirelessNetworkMU.node[6].wlan.mac 	nbBackoffs 	68466
scalar WirelessNetworkMU.node[6].wlan.mac 	backoffDurations 	249.61056000001
scalar WirelessNetworkMU.node[6].wlan.phy 	nbFramesWithInterference 	35592
scalar WirelessNetworkMU.node[6].wlan.phy 	nbFramesWithoutInterference 	26193
scalar WirelessNetworkMU.node[6].wlan.phy 	nbFramesWithInterferencePartial 	9428
scalar WirelessNetworkMU.node[6].wlan.phy 	nbFramesWithoutInterferencePartial 	6675
scalar WirelessNetworkMU.node[6].wlan.phy 	nbFramesWithInterferenceDropped 	51534
scalar WirelessNetworkMU.node[6].wlan.phy 	nbFramesWithoutInterferenceDropped 	5789
scalar WirelessNetworkMU.node[6].batteryStats 	nominal 	1187988120
attr unit  mW-s
scalar WirelessNetworkMU.node[6].batteryStats 	total 	19765.459644079
attr unit  mW-s
scalar WirelessNetworkMU.node[6].batteryStats 	lifetime 	-1
attr unit  s
scalar WirelessNetworkMU.node[6].batteryStats 	"Mean power consumption" 	61.767058025167
attr unit  mW
statistic WirelessNetworkMU.node[7].net 	endToEndDelayRTP:stats
field count 0
field mean 0
field stddev -1.#IND
field sum 0
field sqrsum 0
field min 0
field max 0
attr interpolationmode  none
attr source  endToEndDelayRTP
attr title  "end-to-end delay RTP, stats"
attr unit  s
scalar WirelessNetworkMU.node[7].net 	paquetesRecibidosRTP:sum 	0
attr interpolationmode  none
attr source  recibidosRTP
attr title  "Paquetes recibidos RTP, sum"
scalar WirelessNetworkMU.node[7].net 	paquetesEnviadosWAM:sum 	7824
attr interpolationmode  none
attr source  enviadosWAM
attr title  "Paquetes enviados WAM, sum"
scalar WirelessNetworkMU.node[7].net 	paquetesEnviadosAMR:sum 	2
attr interpolationmode  none
attr source  enviadosAMR
attr title  "Paquetes enviados AMR, sum"
scalar WirelessNetworkMU.node[7].routing 	forwardedRTP:sum 	0
attr interpolationmode  none
attr source  fwdRTP
attr title  "Forwarded RTP, sum"
scalar WirelessNetworkMU.node[7].routing 	forwardedWAM:sum 	0
attr interpolationmode  none
attr source  fwdWAM
attr title  "Forwarded WAM, sum"
scalar WirelessNetworkMU.node[7].routing 	forwardedAMR:sum 	0
attr interpolationmode  none
attr source  fwdAMR
attr title  "Forwarded AMR, sum"
scalar WirelessNetworkMU.node[7].wlan.mac 	nbTxFrames 	18230
scalar WirelessNetworkMU.node[7].wlan.mac 	nbRxFrames 	0
scalar WirelessNetworkMU.node[7].wlan.mac 	nbDroppedFrames 	1912
scalar WirelessNetworkMU.node[7].wlan.mac 	nbMissedAcks 	13319
scalar WirelessNetworkMU.node[7].wlan.mac 	nbRecvdAcks 	4910
scalar WirelessNetworkMU.node[7].wlan.mac 	nbTxAcks 	0
scalar WirelessNetworkMU.node[7].wlan.mac 	nbDuplicates 	0
scalar WirelessNetworkMU.node[7].wlan.mac 	meanBackoff 	0.0026809840397644
scalar WirelessNetworkMU.node[7].wlan.mac 	nbBackoffs 	47681
scalar WirelessNetworkMU.node[7].wlan.mac 	backoffDurations 	127.83200000001
scalar WirelessNetworkMU.node[7].wlan.phy 	nbFramesWithInterference 	13231
scalar WirelessNetworkMU.node[7].wlan.phy 	nbFramesWithoutInterference 	59543
scalar WirelessNetworkMU.node[7].wlan.phy 	nbFramesWithInterferencePartial 	1838
scalar WirelessNetworkMU.node[7].wlan.phy 	nbFramesWithoutInterferencePartial 	420
scalar WirelessNetworkMU.node[7].wlan.phy 	nbFramesWithInterferenceDropped 	11791
scalar WirelessNetworkMU.node[7].wlan.phy 	nbFramesWithoutInterferenceDropped 	884
scalar WirelessNetworkMU.node[7].batteryStats 	nominal 	1187988120
attr unit  mW-s
scalar WirelessNetworkMU.node[7].batteryStats 	total 	19688.176453829
attr unit  mW-s
scalar WirelessNetworkMU.node[7].batteryStats 	lifetime 	-1
attr unit  s
scalar WirelessNetworkMU.node[7].batteryStats 	"Mean power consumption" 	61.525548068782
attr unit  mW
statistic WirelessNetworkMU.node[8].net 	endToEndDelayRTP:stats
field count 0
field mean 0
field stddev -1.#IND
field sum 0
field sqrsum 0
field min 0
field max 0
attr interpolationmode  none
attr source  endToEndDelayRTP
attr title  "end-to-end delay RTP, stats"
attr unit  s
scalar WirelessNetworkMU.node[8].net 	paquetesRecibidosRTP:sum 	0
attr interpolationmode  none
attr source  recibidosRTP
attr title  "Paquetes recibidos RTP, sum"
scalar WirelessNetworkMU.node[8].net 	paquetesEnviadosWAM:sum 	7757
attr interpolationmode  none
attr source  enviadosWAM
attr title  "Paquetes enviados WAM, sum"
scalar WirelessNetworkMU.node[8].net 	paquetesEnviadosAMR:sum 	2
attr interpolationmode  none
attr source  enviadosAMR
attr title  "Paquetes enviados AMR, sum"
scalar WirelessNetworkMU.node[8].routing 	forwardedRTP:sum 	0
attr interpolationmode  none
attr source  fwdRTP
attr title  "Forwarded RTP, sum"
scalar WirelessNetworkMU.node[8].routing 	forwardedWAM:sum 	0
attr interpolationmode  none
attr source  fwdWAM
attr title  "Forwarded WAM, sum"
scalar WirelessNetworkMU.node[8].routing 	forwardedAMR:sum 	0
attr interpolationmode  none
attr source  fwdAMR
attr title  "Forwarded AMR, sum"
scalar WirelessNetworkMU.node[8].wlan.mac 	nbTxFrames 	22762
scalar WirelessNetworkMU.node[8].wlan.mac 	nbRxFrames 	0
scalar WirelessNetworkMU.node[8].wlan.mac 	nbDroppedFrames 	1387
scalar WirelessNetworkMU.node[8].wlan.mac 	nbMissedAcks 	18441
scalar WirelessNetworkMU.node[8].wlan.mac 	nbRecvdAcks 	4321
scalar WirelessNetworkMU.node[8].wlan.mac 	nbTxAcks 	0
scalar WirelessNetworkMU.node[8].wlan.mac 	nbDuplicates 	0
scalar WirelessNetworkMU.node[8].wlan.mac 	meanBackoff 	0.0025068743253664
scalar WirelessNetworkMU.node[8].wlan.mac 	nbBackoffs 	51880
scalar WirelessNetworkMU.node[8].wlan.mac 	backoffDurations 	130.05664000001
scalar WirelessNetworkMU.node[8].wlan.phy 	nbFramesWithInterference 	14980
scalar WirelessNetworkMU.node[8].wlan.phy 	nbFramesWithoutInterference 	44177
scalar WirelessNetworkMU.node[8].wlan.phy 	nbFramesWithInterferencePartial 	1006
scalar WirelessNetworkMU.node[8].wlan.phy 	nbFramesWithoutInterferencePartial 	596
scalar WirelessNetworkMU.node[8].wlan.phy 	nbFramesWithInterferenceDropped 	12280
scalar WirelessNetworkMU.node[8].wlan.phy 	nbFramesWithoutInterferenceDropped 	1239
scalar WirelessNetworkMU.node[8].batteryStats 	nominal 	1187988120
attr unit  mW-s
scalar WirelessNetworkMU.node[8].batteryStats 	total 	19647.367289782
attr unit  mW-s
scalar WirelessNetworkMU.node[8].batteryStats 	lifetime 	-1
attr unit  s
scalar WirelessNetworkMU.node[8].batteryStats 	"Mean power consumption" 	61.398019438077
attr unit  mW
statistic WirelessNetworkMU.node[9].net 	endToEndDelayRTP:stats
field count 0
field mean 0
field stddev -1.#IND
field sum 0
field sqrsum 0
field min 0
field max 0
attr interpolationmode  none
attr source  endToEndDelayRTP
attr title  "end-to-end delay RTP, stats"
attr unit  s
scalar WirelessNetworkMU.node[9].net 	paquetesRecibidosRTP:sum 	0
attr interpolationmode  none
attr source  recibidosRTP
attr title  "Paquetes recibidos RTP, sum"
scalar WirelessNetworkMU.node[9].net 	paquetesEnviadosWAM:sum 	7778
attr interpolationmode  none
attr source  enviadosWAM
attr title  "Paquetes enviados WAM, sum"
scalar WirelessNetworkMU.node[9].net 	paquetesEnviadosAMR:sum 	2
attr interpolationmode  none
attr source  enviadosAMR
attr title  "Paquetes enviados AMR, sum"
scalar WirelessNetworkMU.node[9].routing 	forwardedRTP:sum 	0
attr interpolationmode  none
attr source  fwdRTP
attr title  "Forwarded RTP, sum"
scalar WirelessNetworkMU.node[9].routing 	forwardedWAM:sum 	0
attr interpolationmode  none
attr source  fwdWAM
attr title  "Forwarded WAM, sum"
scalar WirelessNetworkMU.node[9].routing 	forwardedAMR:sum 	0
attr interpolationmode  none
attr source  fwdAMR
attr title  "Forwarded AMR, sum"
scalar WirelessNetworkMU.node[9].wlan.mac 	nbTxFrames 	7760
scalar WirelessNetworkMU.node[9].wlan.mac 	nbRxFrames 	32
scalar WirelessNetworkMU.node[9].wlan.mac 	nbDroppedFrames 	6107
scalar WirelessNetworkMU.node[9].wlan.mac 	nbMissedAcks 	6174
scalar WirelessNetworkMU.node[9].wlan.mac 	nbRecvdAcks 	1586
scalar WirelessNetworkMU.node[9].wlan.mac 	nbTxAcks 	9708
scalar WirelessNetworkMU.node[9].wlan.mac 	nbDuplicates 	258
scalar WirelessNetworkMU.node[9].wlan.mac 	meanBackoff 	0.0034199191879375
scalar WirelessNetworkMU.node[9].wlan.mac 	nbBackoffs 	60882
scalar WirelessNetworkMU.node[9].wlan.mac 	backoffDurations 	208.21152000001
scalar WirelessNetworkMU.node[9].wlan.phy 	nbFramesWithInterference 	39788
scalar WirelessNetworkMU.node[9].wlan.phy 	nbFramesWithoutInterference 	39602
scalar WirelessNetworkMU.node[9].wlan.phy 	nbFramesWithInterferencePartial 	9349
scalar WirelessNetworkMU.node[9].wlan.phy 	nbFramesWithoutInterferencePartial 	5489
scalar WirelessNetworkMU.node[9].wlan.phy 	nbFramesWithInterferenceDropped 	45704
scalar WirelessNetworkMU.node[9].wlan.phy 	nbFramesWithoutInterferenceDropped 	5701
scalar WirelessNetworkMU.node[9].batteryStats 	nominal 	1187988120
attr unit  mW-s
scalar WirelessNetworkMU.node[9].batteryStats 	total 	19766.940360546
attr unit  mW-s
scalar WirelessNetworkMU.node[9].batteryStats 	lifetime 	-1
attr unit  s
scalar WirelessNetworkMU.node[9].batteryStats 	"Mean power consumption" 	61.771685263874
attr unit  mW
statistic WirelessNetworkMU.node[10].net 	endToEndDelayRTP:stats
field count 0
field mean 0
field stddev -1.#IND
field sum 0
field sqrsum 0
field min 0
field max 0
attr interpolationmode  none
attr source  endToEndDelayRTP
attr title  "end-to-end delay RTP, stats"
attr unit  s
scalar WirelessNetworkMU.node[10].net 	paquetesRecibidosRTP:sum 	0
attr interpolationmode  none
attr source  recibidosRTP
attr title  "Paquetes recibidos RTP, sum"
scalar WirelessNetworkMU.node[10].net 	paquetesEnviadosWAM:sum 	7861
attr interpolationmode  none
attr source  enviadosWAM
attr title  "Paquetes enviados WAM, sum"
scalar WirelessNetworkMU.node[10].net 	paquetesEnviadosAMR:sum 	2
attr interpolationmode  none
attr source  enviadosAMR
attr title  "Paquetes enviados AMR, sum"
scalar WirelessNetworkMU.node[10].routing 	forwardedRTP:sum 	0
attr interpolationmode  none
attr source  fwdRTP
attr title  "Forwarded RTP, sum"
scalar WirelessNetworkMU.node[10].routing 	forwardedWAM:sum 	0
attr interpolationmode  none
attr source  fwdWAM
attr title  "Forwarded WAM, sum"
scalar WirelessNetworkMU.node[10].routing 	forwardedAMR:sum 	0
attr interpolationmode  none
attr source  fwdAMR
attr title  "Forwarded AMR, sum"
scalar WirelessNetworkMU.node[10].wlan.mac 	nbTxFrames 	10319
scalar WirelessNetworkMU.node[10].wlan.mac 	nbRxFrames 	0
scalar WirelessNetworkMU.node[10].wlan.mac 	nbDroppedFrames 	5641
scalar WirelessNetworkMU.node[10].wlan.mac 	nbMissedAcks 	8444
scalar WirelessNetworkMU.node[10].wlan.mac 	nbRecvdAcks 	1875
scalar WirelessNetworkMU.node[10].wlan.mac 	nbTxAcks 	0
scalar WirelessNetworkMU.node[10].wlan.mac 	nbDuplicates 	0
scalar WirelessNetworkMU.node[10].wlan.mac 	meanBackoff 	0.003237902090189
scalar WirelessNetworkMU.node[10].wlan.mac 	nbBackoffs 	54397
scalar WirelessNetworkMU.node[10].wlan.mac 	backoffDurations 	176.13216000001
scalar WirelessNetworkMU.node[10].wlan.phy 	nbFramesWithInterference 	31700
scalar WirelessNetworkMU.node[10].wlan.phy 	nbFramesWithoutInterference 	52274
scalar WirelessNetworkMU.node[10].wlan.phy 	nbFramesWithInterferencePartial 	5693
scalar WirelessNetworkMU.node[10].wlan.phy 	nbFramesWithoutInterferencePartial 	2285
scalar WirelessNetworkMU.node[10].wlan.phy 	nbFramesWithInterferenceDropped 	31596
scalar WirelessNetworkMU.node[10].wlan.phy 	nbFramesWithoutInterferenceDropped 	3385
scalar WirelessNetworkMU.node[10].batteryStats 	nominal 	1187988120
attr unit  mW-s
scalar WirelessNetworkMU.node[10].batteryStats 	total 	19759.672851801
attr unit  mW-s
scalar WirelessNetworkMU.node[10].batteryStats 	lifetime 	-1
attr unit  s
scalar WirelessNetworkMU.node[10].batteryStats 	"Mean power consumption" 	61.748974300282
attr unit  mW
statistic WirelessNetworkMU.node[11].net 	endToEndDelayRTP:stats
field count 0
field mean 0
field stddev -1.#IND
field sum 0
field sqrsum 0
field min 0
field max 0
attr interpolationmode  none
attr source  endToEndDelayRTP
attr title  "end-to-end delay RTP, stats"
attr unit  s
scalar WirelessNetworkMU.node[11].net 	paquetesRecibidosRTP:sum 	0
attr interpolationmode  none
attr source  recibidosRTP
attr title  "Paquetes recibidos RTP, sum"
scalar WirelessNetworkMU.node[11].net 	paquetesEnviadosWAM:sum 	7963
attr interpolationmode  none
attr source  enviadosWAM
attr title  "Paquetes enviados WAM, sum"
scalar WirelessNetworkMU.node[11].net 	paquetesEnviadosAMR:sum 	2
attr interpolationmode  none
attr source  enviadosAMR
attr title  "Paquetes enviados AMR, sum"
scalar WirelessNetworkMU.node[11].routing 	forwardedRTP:sum 	0
attr interpolationmode  none
attr source  fwdRTP
attr title  "Forwarded RTP, sum"
scalar WirelessNetworkMU.node[11].routing 	forwardedWAM:sum 	0
attr interpolationmode  none
attr source  fwdWAM
attr title  "Forwarded WAM, sum"
scalar WirelessNetworkMU.node[11].routing 	forwardedAMR:sum 	0
attr interpolationmode  none
attr source  fwdAMR
attr title  "Forwarded AMR, sum"
scalar WirelessNetworkMU.node[11].wlan.mac 	nbTxFrames 	12816
scalar WirelessNetworkMU.node[11].wlan.mac 	nbRxFrames 	0
scalar WirelessNetworkMU.node[11].wlan.mac 	nbDroppedFrames 	4882
scalar WirelessNetworkMU.node[11].wlan.mac 	nbMissedAcks 	11076
scalar WirelessNetworkMU.node[11].wlan.mac 	nbRecvdAcks 	1740
scalar WirelessNetworkMU.node[11].wlan.mac 	nbTxAcks 	0
scalar WirelessNetworkMU.node[11].wlan.mac 	nbDuplicates 	0
scalar WirelessNetworkMU.node[11].wlan.mac 	meanBackoff 	0.0031115803751496
scalar WirelessNetworkMU.node[11].wlan.mac 	nbBackoffs 	56031
scalar WirelessNetworkMU.node[11].wlan.mac 	backoffDurations 	174.34496000001
scalar WirelessNetworkMU.node[11].wlan.phy 	nbFramesWithInterference 	33233
scalar WirelessNetworkMU.node[11].wlan.phy 	nbFramesWithoutInterference 	50934
scalar WirelessNetworkMU.node[11].wlan.phy 	nbFramesWithInterferencePartial 	6056
scalar WirelessNetworkMU.node[11].wlan.phy 	nbFramesWithoutInterferencePartial 	2167
scalar WirelessNetworkMU.node[11].wlan.phy 	nbFramesWithInterferenceDropped 	30908
scalar WirelessNetworkMU.node[11].wlan.phy 	nbFramesWithoutInterferenceDropped 	2990
scalar WirelessNetworkMU.node[11].batteryStats 	nominal 	1187988120
attr unit  mW-s
scalar WirelessNetworkMU.node[11].batteryStats 	total 	19737.131461382
attr unit  mW-s
scalar WirelessNetworkMU.node[11].batteryStats 	lifetime 	-1
attr unit  s
scalar WirelessNetworkMU.node[11].batteryStats 	"Mean power consumption" 	61.678532459057
attr unit  mW
statistic WirelessNetworkMU.node[12].net 	endToEndDelayRTP:stats
field count 0
field mean 0
field stddev -1.#IND
field sum 0
field sqrsum 0
field min 0
field max 0
attr interpolationmode  none
attr source  endToEndDelayRTP
attr title  "end-to-end delay RTP, stats"
attr unit  s
scalar WirelessNetworkMU.node[12].net 	paquetesRecibidosRTP:sum 	0
attr interpolationmode  none
attr source  recibidosRTP
attr title  "Paquetes recibidos RTP, sum"
scalar WirelessNetworkMU.node[12].net 	paquetesEnviadosWAM:sum 	7874
attr interpolationmode  none
attr source  enviadosWAM
attr title  "Paquetes enviados WAM, sum"
scalar WirelessNetworkMU.node[12].net 	paquetesEnviadosAMR:sum 	2
attr interpolationmode  none
attr source  enviadosAMR
attr title  "Paquetes enviados AMR, sum"
scalar WirelessNetworkMU.node[12].routing 	forwardedRTP:sum 	0
attr interpolationmode  none
attr source  fwdRTP
attr title  "Forwarded RTP, sum"
scalar WirelessNetworkMU.node[12].routing 	forwardedWAM:sum 	0
attr interpolationmode  none
attr source  fwdWAM
attr title  "Forwarded WAM, sum"
scalar WirelessNetworkMU.node[12].routing 	forwardedAMR:sum 	0
attr interpolationmode  none
attr source  fwdAMR
attr title  "Forwarded AMR, sum"
scalar WirelessNetworkMU.node[12].wlan.mac 	nbTxFrames 	6597
scalar WirelessNetworkMU.node[12].wlan.mac 	nbRxFrames 	0
scalar WirelessNetworkMU.node[12].wlan.mac 	nbDroppedFrames 	6491
scalar WirelessNetworkMU.node[12].wlan.mac 	nbMissedAcks 	5297
scalar WirelessNetworkMU.node[12].wlan.mac 	nbRecvdAcks 	1300
scalar WirelessNetworkMU.node[12].wlan.mac 	nbTxAcks 	0
scalar WirelessNetworkMU.node[12].wlan.mac 	nbDuplicates 	0
scalar WirelessNetworkMU.node[12].wlan.mac 	meanBackoff 	0.0033825609950568
scalar WirelessNetworkMU.node[12].wlan.mac 	nbBackoffs 	50168
scalar WirelessNetworkMU.node[12].wlan.mac 	backoffDurations 	169.69632000001
scalar WirelessNetworkMU.node[12].wlan.phy 	nbFramesWithInterference 	38711
scalar WirelessNetworkMU.node[12].wlan.phy 	nbFramesWithoutInterference 	33562
scalar WirelessNetworkMU.node[12].wlan.phy 	nbFramesWithInterferencePartial 	10251
scalar WirelessNetworkMU.node[12].wlan.phy 	nbFramesWithoutInterferencePartial 	5996
scalar WirelessNetworkMU.node[12].wlan.phy 	nbFramesWithInterferenceDropped 	50996
scalar WirelessNetworkMU.node[12].wlan.phy 	nbFramesWithoutInterferenceDropped 	5965
scalar WirelessNetworkMU.node[12].batteryStats 	nominal 	1187988120
attr unit  mW-s
scalar WirelessNetworkMU.node[12].batteryStats 	total 	19793.284386635
attr unit  mW-s
scalar WirelessNetworkMU.node[12].batteryStats 	lifetime 	-1
attr unit  s
scalar WirelessNetworkMU.node[12].batteryStats 	"Mean power consumption" 	61.85401034092
attr unit  mW
statistic WirelessNetworkMU.node[13].net 	endToEndDelayRTP:stats
field count 0
field mean 0
field stddev -1.#IND
field sum 0
field sqrsum 0
field min 0
field max 0
attr interpolationmode  none
attr source  endToEndDelayRTP
attr title  "end-to-end delay RTP, stats"
attr unit  s
scalar WirelessNetworkMU.node[13].net 	paquetesRecibidosRTP:sum 	0
attr interpolationmode  none
attr source  recibidosRTP
attr title  "Paquetes recibidos RTP, sum"
scalar WirelessNetworkMU.node[13].net 	paquetesEnviadosWAM:sum 	7971
attr interpolationmode  none
attr source  enviadosWAM
attr title  "Paquetes enviados WAM, sum"
scalar WirelessNetworkMU.node[13].net 	paquetesEnviadosAMR:sum 	2
attr interpolationmode  none
attr source  enviadosAMR
attr title  "Paquetes enviados AMR, sum"
scalar WirelessNetworkMU.node[13].routing 	forwardedRTP:sum 	0
attr interpolationmode  none
attr source  fwdRTP
attr title  "Forwarded RTP, sum"
scalar WirelessNetworkMU.node[13].routing 	forwardedWAM:sum 	0
attr interpolationmode  none
attr source  fwdWAM
attr title  "Forwarded WAM, sum"
scalar WirelessNetworkMU.node[13].routing 	forwardedAMR:sum 	0
attr interpolationmode  none
attr source  fwdAMR
attr title  "Forwarded AMR, sum"
scalar WirelessNetworkMU.node[13].wlan.mac 	nbTxFrames 	14568
scalar WirelessNetworkMU.node[13].wlan.mac 	nbRxFrames 	0
scalar WirelessNetworkMU.node[13].wlan.mac 	nbDroppedFrames 	3652
scalar WirelessNetworkMU.node[13].wlan.mac 	nbMissedAcks 	10864
scalar WirelessNetworkMU.node[13].wlan.mac 	nbRecvdAcks 	3704
scalar WirelessNetworkMU.node[13].wlan.mac 	nbTxAcks 	0
scalar WirelessNetworkMU.node[13].wlan.mac 	nbDuplicates 	0
scalar WirelessNetworkMU.node[13].wlan.mac 	meanBackoff 	0.002964947433519
scalar WirelessNetworkMU.node[13].wlan.mac 	nbBackoffs 	51744
scalar WirelessNetworkMU.node[13].wlan.mac 	backoffDurations 	153.41824000001
scalar WirelessNetworkMU.node[13].wlan.phy 	nbFramesWithInterference 	18816
scalar WirelessNetworkMU.node[13].wlan.phy 	nbFramesWithoutInterference 	70373
scalar WirelessNetworkMU.node[13].wlan.phy 	nbFramesWithInterferencePartial 	3501
scalar WirelessNetworkMU.node[13].wlan.phy 	nbFramesWithoutInterferencePartial 	519
scalar WirelessNetworkMU.node[13].wlan.phy 	nbFramesWithInterferenceDropped 	17071
scalar WirelessNetworkMU.node[13].wlan.phy 	nbFramesWithoutInterferenceDropped 	986
scalar WirelessNetworkMU.node[13].batteryStats 	nominal 	1187988120
attr unit  mW-s
scalar WirelessNetworkMU.node[13].batteryStats 	total 	19721.240306139
attr unit  mW-s
scalar WirelessNetworkMU.node[13].batteryStats 	lifetime 	-1
attr unit  s
scalar WirelessNetworkMU.node[13].batteryStats 	"Mean power consumption" 	61.628872601627
attr unit  mW
statistic WirelessNetworkMU.node[14].net 	endToEndDelayRTP:stats
field count 1
field mean 0.03362825214
field stddev -1.#IND
field sum 0.03362825214
field sqrsum 0.0011308593419914
field min 0.03362825214
field max 0.03362825214
attr interpolationmode  none
attr source  endToEndDelayRTP
attr title  "end-to-end delay RTP, stats"
attr unit  s
scalar WirelessNetworkMU.node[14].net 	paquetesRecibidosRTP:sum 	1
attr interpolationmode  none
attr source  recibidosRTP
attr title  "Paquetes recibidos RTP, sum"
scalar WirelessNetworkMU.node[14].net 	paquetesEnviadosWAM:sum 	7876
attr interpolationmode  none
attr source  enviadosWAM
attr title  "Paquetes enviados WAM, sum"
scalar WirelessNetworkMU.node[14].net 	paquetesEnviadosAMR:sum 	2
attr interpolationmode  none
attr source  enviadosAMR
attr title  "Paquetes enviados AMR, sum"
scalar WirelessNetworkMU.node[14].routing 	forwardedRTP:sum 	0
attr interpolationmode  none
attr source  fwdRTP
attr title  "Forwarded RTP, sum"
scalar WirelessNetworkMU.node[14].routing 	forwardedWAM:sum 	0
attr interpolationmode  none
attr source  fwdWAM
attr title  "Forwarded WAM, sum"
scalar WirelessNetworkMU.node[14].routing 	forwardedAMR:sum 	0
attr interpolationmode  none
attr source  fwdAMR
attr title  "Forwarded AMR, sum"
scalar WirelessNetworkMU.node[14].wlan.mac 	nbTxFrames 	17030
scalar WirelessNetworkMU.node[14].wlan.mac 	nbRxFrames 	2
scalar WirelessNetworkMU.node[14].wlan.mac 	nbDroppedFrames 	3015
scalar WirelessNetworkMU.node[14].wlan.mac 	nbMissedAcks 	11165
scalar WirelessNetworkMU.node[14].wlan.mac 	nbRecvdAcks 	5865
scalar WirelessNetworkMU.node[14].wlan.mac 	nbTxAcks 	4005
scalar WirelessNetworkMU.node[14].wlan.mac 	nbDuplicates 	182
scalar WirelessNetworkMU.node[14].wlan.mac 	meanBackoff 	0.0029295382307278
scalar WirelessNetworkMU.node[14].wlan.mac 	nbBackoffs 	57323
scalar WirelessNetworkMU.node[14].wlan.mac 	backoffDurations 	167.92992000001
scalar WirelessNetworkMU.node[14].wlan.phy 	nbFramesWithInterference 	22957
scalar WirelessNetworkMU.node[14].wlan.phy 	nbFramesWithoutInterference 	71214
scalar WirelessNetworkMU.node[14].wlan.phy 	nbFramesWithInterferencePartial 	3042
scalar WirelessNetworkMU.node[14].wlan.phy 	nbFramesWithoutInterferencePartial 	1370
scalar WirelessNetworkMU.node[14].wlan.phy 	nbFramesWithInterferenceDropped 	16913
scalar WirelessNetworkMU.node[14].wlan.phy 	nbFramesWithoutInterferenceDropped 	2419
scalar WirelessNetworkMU.node[14].batteryStats 	nominal 	1187988120
attr unit  mW-s
scalar WirelessNetworkMU.node[14].batteryStats 	total 	19692.365039587
attr unit  mW-s
scalar WirelessNetworkMU.node[14].batteryStats 	lifetime 	-1
attr unit  s
scalar WirelessNetworkMU.node[14].batteryStats 	"Mean power consumption" 	61.538637398564
attr unit  mW
statistic WirelessNetworkMU.node[15].net 	endToEndDelayRTP:stats
field count 1
field mean 0.033628289036
field stddev -1.#IND
field sum 0.033628289036
field sqrsum 0.0011308618234888
field min 0.033628289036
field max 0.033628289036
attr interpolationmode  none
attr source  endToEndDelayRTP
attr title  "end-to-end delay RTP, stats"
attr unit  s
scalar WirelessNetworkMU.node[15].net 	paquetesRecibidosRTP:sum 	1
attr interpolationmode  none
attr source  recibidosRTP
attr title  "Paquetes recibidos RTP, sum"
scalar WirelessNetworkMU.node[15].net 	paquetesEnviadosWAM:sum 	7755
attr interpolationmode  none
attr source  enviadosWAM
attr title  "Paquetes enviados WAM, sum"
scalar WirelessNetworkMU.node[15].net 	paquetesEnviadosAMR:sum 	2
attr interpolationmode  none
attr source  enviadosAMR
attr title  "Paquetes enviados AMR, sum"
scalar WirelessNetworkMU.node[15].routing 	forwardedRTP:sum 	0
attr interpolationmode  none
attr source  fwdRTP
attr title  "Forwarded RTP, sum"
scalar WirelessNetworkMU.node[15].routing 	forwardedWAM:sum 	0
attr interpolationmode  none
attr source  fwdWAM
attr title  "Forwarded WAM, sum"
scalar WirelessNetworkMU.node[15].routing 	forwardedAMR:sum 	0
attr interpolationmode  none
attr source  fwdAMR
attr title  "Forwarded AMR, sum"
scalar WirelessNetworkMU.node[15].wlan.mac 	nbTxFrames 	8184
scalar WirelessNetworkMU.node[15].wlan.mac 	nbRxFrames 	1
scalar WirelessNetworkMU.node[15].wlan.mac 	nbDroppedFrames 	4111
scalar WirelessNetworkMU.node[15].wlan.mac 	nbMissedAcks 	4585
scalar WirelessNetworkMU.node[15].wlan.mac 	nbRecvdAcks 	3599
scalar WirelessNetworkMU.node[15].wlan.mac 	nbTxAcks 	0
scalar WirelessNetworkMU.node[15].wlan.mac 	nbDuplicates 	0
scalar WirelessNetworkMU.node[15].wlan.mac 	meanBackoff 	0.0032059201934705
scalar WirelessNetworkMU.node[15].wlan.mac 	nbBackoffs 	41350
scalar WirelessNetworkMU.node[15].wlan.mac 	backoffDurations 	132.56480000001
scalar WirelessNetworkMU.node[15].wlan.phy 	nbFramesWithInterference 	38011
scalar WirelessNetworkMU.node[15].wlan.phy 	nbFramesWithoutInterference 	55315
scalar WirelessNetworkMU.node[15].wlan.phy 	nbFramesWithInterferencePartial 	5796
scalar WirelessNetworkMU.node[15].wlan.phy 	nbFramesWithoutInterferencePartial 	4295
scalar WirelessNetworkMU.node[15].wlan.phy 	nbFramesWithInterferenceDropped 	34953
scalar WirelessNetworkMU.node[15].wlan.phy 	nbFramesWithoutInterferenceDropped 	5598
scalar WirelessNetworkMU.node[15].batteryStats 	nominal 	1187988120
attr unit  mW-s
scalar WirelessNetworkMU.node[15].batteryStats 	total 	19778.972459078
attr unit  mW-s
scalar WirelessNetworkMU.node[15].batteryStats 	lifetime 	-1
attr unit  s
scalar WirelessNetworkMU.node[15].batteryStats 	"Mean power consumption" 	61.809285569739
attr unit  mW
statistic WirelessNetworkMU.node[16].net 	endToEndDelayRTP:stats
field count 1
field mean 0.033628260797
field stddev -1.#IND
field sum 0.033628260797
field sqrsum 0.001130859924231
field min 0.033628260797
field max 0.033628260797
attr interpolationmode  none
attr source  endToEndDelayRTP
attr title  "end-to-end delay RTP, stats"
attr unit  s
scalar WirelessNetworkMU.node[16].net 	paquetesRecibidosRTP:sum 	1
attr interpolationmode  none
attr source  recibidosRTP
attr title  "Paquetes recibidos RTP, sum"
scalar WirelessNetworkMU.node[16].net 	paquetesEnviadosWAM:sum 	7895
attr interpolationmode  none
attr source  enviadosWAM
attr title  "Paquetes enviados WAM, sum"
scalar WirelessNetworkMU.node[16].net 	paquetesEnviadosAMR:sum 	2
attr interpolationmode  none
attr source  enviadosAMR
attr title  "Paquetes enviados AMR, sum"
scalar WirelessNetworkMU.node[16].routing 	forwardedRTP:sum 	0
attr interpolationmode  none
attr source  fwdRTP
attr title  "Forwarded RTP, sum"
scalar WirelessNetworkMU.node[16].routing 	forwardedWAM:sum 	0
attr interpolationmode  none
attr source  fwdWAM
attr title  "Forwarded WAM, sum"
scalar WirelessNetworkMU.node[16].routing 	forwardedAMR:sum 	0
attr interpolationmode  none
attr source  fwdAMR
attr title  "Forwarded AMR, sum"
scalar WirelessNetworkMU.node[16].wlan.mac 	nbTxFrames 	20672
scalar WirelessNetworkMU.node[16].wlan.mac 	nbRxFrames 	7
scalar WirelessNetworkMU.node[16].wlan.mac 	nbDroppedFrames 	2063
scalar WirelessNetworkMU.node[16].wlan.mac 	nbMissedAcks 	14464
scalar WirelessNetworkMU.node[16].wlan.mac 	nbRecvdAcks 	6207
scalar WirelessNetworkMU.node[16].wlan.mac 	nbTxAcks 	4043
scalar WirelessNetworkMU.node[16].wlan.mac 	nbDuplicates 	201
scalar WirelessNetworkMU.node[16].wlan.mac 	meanBackoff 	0.0027459732376881
scalar WirelessNetworkMU.node[16].wlan.mac 	nbBackoffs 	57992
scalar WirelessNetworkMU.node[16].wlan.mac 	backoffDurations 	159.24448000001
scalar WirelessNetworkMU.node[16].wlan.phy 	nbFramesWithInterference 	17987
scalar WirelessNetworkMU.node[16].wlan.phy 	nbFramesWithoutInterference 	76135
scalar WirelessNetworkMU.node[16].wlan.phy 	nbFramesWithInterferencePartial 	2229
scalar WirelessNetworkMU.node[16].wlan.phy 	nbFramesWithoutInterferencePartial 	663
scalar WirelessNetworkMU.node[16].wlan.phy 	nbFramesWithInterferenceDropped 	11578
scalar WirelessNetworkMU.node[16].wlan.phy 	nbFramesWithoutInterferenceDropped 	1160
scalar WirelessNetworkMU.node[16].batteryStats 	nominal 	1187988120
attr unit  mW-s
scalar WirelessNetworkMU.node[16].batteryStats 	total 	19659.717025518
attr unit  mW-s
scalar WirelessNetworkMU.node[16].batteryStats 	lifetime 	-1
attr unit  s
scalar WirelessNetworkMU.node[16].batteryStats 	"Mean power consumption" 	61.436612360154
attr unit  mW
statistic WirelessNetworkMU.node[17].net 	endToEndDelayRTP:stats
field count 0
field mean 0
field stddev -1.#IND
field sum 0
field sqrsum 0
field min 0
field max 0
attr interpolationmode  none
attr source  endToEndDelayRTP
attr title  "end-to-end delay RTP, stats"
attr unit  s
scalar WirelessNetworkMU.node[17].net 	paquetesRecibidosRTP:sum 	0
attr interpolationmode  none
attr source  recibidosRTP
attr title  "Paquetes recibidos RTP, sum"
scalar WirelessNetworkMU.node[17].net 	paquetesEnviadosWAM:sum 	7867
attr interpolationmode  none
attr source  enviadosWAM
attr title  "Paquetes enviados WAM, sum"
scalar WirelessNetworkMU.node[17].net 	paquetesEnviadosAMR:sum 	2
attr interpolationmode  none
attr source  enviadosAMR
attr title  "Paquetes enviados AMR, sum"
scalar WirelessNetworkMU.node[17].routing 	forwardedRTP:sum 	0
attr interpolationmode  none
attr source  fwdRTP
attr title  "Forwarded RTP, sum"
scalar WirelessNetworkMU.node[17].routing 	forwardedWAM:sum 	0
attr interpolationmode  none
attr source  fwdWAM
attr title  "Forwarded WAM, sum"
scalar WirelessNetworkMU.node[17].routing 	forwardedAMR:sum 	0
attr interpolationmode  none
attr source  fwdAMR
attr title  "Forwarded AMR, sum"
scalar WirelessNetworkMU.node[17].wlan.mac 	nbTxFrames 	13991
scalar WirelessNetworkMU.node[17].wlan.mac 	nbRxFrames 	0
scalar WirelessNetworkMU.node[17].wlan.mac 	nbDroppedFrames 	3701
scalar WirelessNetworkMU.node[17].wlan.mac 	nbMissedAcks 	10397
scalar WirelessNetworkMU.node[17].wlan.mac 	nbRecvdAcks 	3594
scalar WirelessNetworkMU.node[17].wlan.mac 	nbTxAcks 	0
scalar WirelessNetworkMU.node[17].wlan.mac 	nbDuplicates 	0
scalar WirelessNetworkMU.node[17].wlan.mac 	meanBackoff 	0.0030019630417392
scalar WirelessNetworkMU.node[17].wlan.mac 	nbBackoffs 	51247
scalar WirelessNetworkMU.node[17].wlan.mac 	backoffDurations 	153.84160000001
scalar WirelessNetworkMU.node[17].wlan.phy 	nbFramesWithInterference 	19510
scalar WirelessNetworkMU.node[17].wlan.phy 	nbFramesWithoutInterference 	65501
scalar WirelessNetworkMU.node[17].wlan.phy 	nbFramesWithInterferencePartial 	3724
scalar WirelessNetworkMU.node[17].wlan.phy 	nbFramesWithoutInterferencePartial 	616
scalar WirelessNetworkMU.node[17].wlan.phy 	nbFramesWithInterferenceDropped 	18656
scalar WirelessNetworkMU.node[17].wlan.phy 	nbFramesWithoutInterferenceDropped 	1189
scalar WirelessNetworkMU.node[17].batteryStats 	nominal 	1187988120
attr unit  mW-s
scalar WirelessNetworkMU.node[17].batteryStats 	total 	19726.557760715
attr unit  mW-s
scalar WirelessNetworkMU.node[17].batteryStats 	lifetime 	-1
attr unit  s
scalar WirelessNetworkMU.node[17].batteryStats 	"Mean power consumption" 	61.645489646274
attr unit  mW
statistic WirelessNetworkMU.node[18].net 	endToEndDelayRTP:stats
field count 0
field mean 0
field stddev -1.#IND
field sum 0
field sqrsum 0
field min 0
field max 0
attr interpolationmode  none
attr source  endToEndDelayRTP
attr title  "end-to-end delay RTP, stats"
attr unit  s
scalar WirelessNetworkMU.node[18].net 	paquetesRecibidosRTP:sum 	0
attr interpolationmode  none
attr source  recibidosRTP
attr title  "Paquetes recibidos RTP, sum"
scalar WirelessNetworkMU.node[18].net 	paquetesEnviadosWAM:sum 	7821
attr interpolationmode  none
attr source  enviadosWAM
attr title  "Paquetes enviados WAM, sum"
scalar WirelessNetworkMU.node[18].net 	paquetesEnviadosAMR:sum 	2
attr interpolationmode  none
attr source  enviadosAMR
attr title  "Paquetes enviados AMR, sum"
scalar WirelessNetworkMU.node[18].routing 	forwardedRTP:sum 	0
attr interpolationmode  none
attr source  fwdRTP
attr title  "Forwarded RTP, sum"
scalar WirelessNetworkMU.node[18].routing 	forwardedWAM:sum 	0
attr interpolationmode  none
attr source  fwdWAM
attr title  "Forwarded WAM, sum"
scalar WirelessNetworkMU.node[18].routing 	forwardedAMR:sum 	0
attr interpolationmode  none
attr source  fwdAMR
attr title  "Forwarded AMR, sum"
scalar WirelessNetworkMU.node[18].wlan.mac 	nbTxFrames 	13366
scalar WirelessNetworkMU.node[18].wlan.mac 	nbRxFrames 	0
scalar WirelessNetworkMU.node[18].wlan.mac 	nbDroppedFrames 	4616
scalar WirelessNetworkMU.node[18].wlan.mac 	nbMissedAcks 	11549
scalar WirelessNetworkMU.node[18].wlan.mac 	nbRecvdAcks 	1817
scalar WirelessNetworkMU.node[18].wlan.mac 	nbTxAcks 	0
scalar WirelessNetworkMU.node[18].wlan.mac 	nbDuplicates 	0
scalar WirelessNetworkMU.node[18].wlan.mac 	meanBackoff 	0.0030943328793246
scalar WirelessNetworkMU.node[18].wlan.mac 	nbBackoffs 	55065
scalar WirelessNetworkMU.node[18].wlan.mac 	backoffDurations 	170.38944000001
scalar WirelessNetworkMU.node[18].wlan.phy 	nbFramesWithInterference 	25964
scalar WirelessNetworkMU.node[18].wlan.phy 	nbFramesWithoutInterference 	48436
scalar WirelessNetworkMU.node[18].wlan.phy 	nbFramesWithInterferencePartial 	3868
scalar WirelessNetworkMU.node[18].wlan.phy 	nbFramesWithoutInterferencePartial 	1466
scalar WirelessNetworkMU.node[18].wlan.phy 	nbFramesWithInterferenceDropped 	25864
scalar WirelessNetworkMU.node[18].wlan.phy 	nbFramesWithoutInterferenceDropped 	2583
scalar WirelessNetworkMU.node[18].batteryStats 	nominal 	1187988120
attr unit  mW-s
scalar WirelessNetworkMU.node[18].batteryStats 	total 	19732.125808001
attr unit  mW-s
scalar WirelessNetworkMU.node[18].batteryStats 	lifetime 	-1
attr unit  s
scalar WirelessNetworkMU.node[18].batteryStats 	"Mean power consumption" 	61.662889793092
attr unit  mW
statistic WirelessNetworkMU.node[19].net 	endToEndDelayRTP:stats
field count 0
field mean 0
field stddev -1.#IND
field sum 0
field sqrsum 0
field min 0
field max 0
attr interpolationmode  none
attr source  endToEndDelayRTP
attr title  "end-to-end delay RTP, stats"
attr unit  s
scalar WirelessNetworkMU.node[19].net 	paquetesRecibidosRTP:sum 	0
attr interpolationmode  none
attr source  recibidosRTP
attr title  "Paquetes recibidos RTP, sum"
scalar WirelessNetworkMU.node[19].net 	paquetesEnviadosWAM:sum 	7777
attr interpolationmode  none
attr source  enviadosWAM
attr title  "Paquetes enviados WAM, sum"
scalar WirelessNetworkMU.node[19].net 	paquetesEnviadosAMR:sum 	2
attr interpolationmode  none
attr source  enviadosAMR
attr title  "Paquetes enviados AMR, sum"
scalar WirelessNetworkMU.node[19].routing 	forwardedRTP:sum 	0
attr interpolationmode  none
attr source  fwdRTP
attr title  "Forwarded RTP, sum"
scalar WirelessNetworkMU.node[19].routing 	forwardedWAM:sum 	0
attr interpolationmode  none
attr source  fwdWAM
attr title  "Forwarded WAM, sum"
scalar WirelessNetworkMU.node[19].routing 	forwardedAMR:sum 	0
attr interpolationmode  none
attr source  fwdAMR
attr title  "Forwarded AMR, sum"
scalar WirelessNetworkMU.node[19].wlan.mac 	nbTxFrames 	13923
scalar WirelessNetworkMU.node[19].wlan.mac 	nbRxFrames 	0
scalar WirelessNetworkMU.node[19].wlan.mac 	nbDroppedFrames 	4409
scalar WirelessNetworkMU.node[19].wlan.mac 	nbMissedAcks 	12011
scalar WirelessNetworkMU.node[19].wlan.mac 	nbRecvdAcks 	1912
scalar WirelessNetworkMU.node[19].wlan.mac 	nbTxAcks 	0
scalar WirelessNetworkMU.node[19].wlan.mac 	nbDuplicates 	0
scalar WirelessNetworkMU.node[19].wlan.mac 	meanBackoff 	0.0030630921520374
scalar WirelessNetworkMU.node[19].wlan.mac 	nbBackoffs 	54855
scalar WirelessNetworkMU.node[19].wlan.mac 	backoffDurations 	168.02592000001
scalar WirelessNetworkMU.node[19].wlan.phy 	nbFramesWithInterference 	22589
scalar WirelessNetworkMU.node[19].wlan.phy 	nbFramesWithoutInterference 	63172
scalar WirelessNetworkMU.node[19].wlan.phy 	nbFramesWithInterferencePartial 	3959
scalar WirelessNetworkMU.node[19].wlan.phy 	nbFramesWithoutInterferencePartial 	946
scalar WirelessNetworkMU.node[19].wlan.phy 	nbFramesWithInterferenceDropped 	21021
scalar WirelessNetworkMU.node[19].wlan.phy 	nbFramesWithoutInterferenceDropped 	1531
scalar WirelessNetworkMU.node[19].batteryStats 	nominal 	1187988120
attr unit  mW-s
scalar WirelessNetworkMU.node[19].batteryStats 	total 	19727.057069063
attr unit  mW-s
scalar WirelessNetworkMU.node[19].batteryStats 	lifetime 	-1
attr unit  s
scalar WirelessNetworkMU.node[19].batteryStats 	"Mean power consumption" 	61.647049984775
attr unit  mW
statistic WirelessNetworkMU.node[20].net 	endToEndDelayRTP:stats
field count 0
field mean 0
field stddev -1.#IND
field sum 0
field sqrsum 0
field min 0
field max 0
attr interpolationmode  none
attr source  endToEndDelayRTP
attr title  "end-to-end delay RTP, stats"
attr unit  s
scalar WirelessNetworkMU.node[20].net 	paquetesRecibidosRTP:sum 	0
attr interpolationmode  none
attr source  recibidosRTP
attr title  "Paquetes recibidos RTP, sum"
scalar WirelessNetworkMU.node[20].net 	paquetesEnviadosWAM:sum 	7769
attr interpolationmode  none
attr source  enviadosWAM
attr title  "Paquetes enviados WAM, sum"
scalar WirelessNetworkMU.node[20].net 	paquetesEnviadosAMR:sum 	2
attr interpolationmode  none
attr source  enviadosAMR
attr title  "Paquetes enviados AMR, sum"
scalar WirelessNetworkMU.node[20].routing 	forwardedRTP:sum 	0
attr interpolationmode  none
attr source  fwdRTP
attr title  "Forwarded RTP, sum"
scalar WirelessNetworkMU.node[20].routing 	forwardedWAM:sum 	0
attr interpolationmode  none
attr source  fwdWAM
attr title  "Forwarded WAM, sum"
scalar WirelessNetworkMU.node[20].routing 	forwardedAMR:sum 	0
attr interpolationmode  none
attr source  fwdAMR
attr title  "Forwarded AMR, sum"
scalar WirelessNetworkMU.node[20].wlan.mac 	nbTxFrames 	30889
scalar WirelessNetworkMU.node[20].wlan.mac 	nbRxFrames 	0
scalar WirelessNetworkMU.node[20].wlan.mac 	nbDroppedFrames 	298
scalar WirelessNetworkMU.node[20].wlan.mac 	nbMissedAcks 	27719
scalar WirelessNetworkMU.node[20].wlan.mac 	nbRecvdAcks 	3169
scalar WirelessNetworkMU.node[20].wlan.mac 	nbTxAcks 	0
scalar WirelessNetworkMU.node[20].wlan.mac 	nbDuplicates 	0
scalar WirelessNetworkMU.node[20].wlan.mac 	meanBackoff 	0.0019747805673817
scalar WirelessNetworkMU.node[20].wlan.mac 	nbBackoffs 	50266
scalar WirelessNetworkMU.node[20].wlan.mac 	backoffDurations 	99.264320000007
scalar WirelessNetworkMU.node[20].wlan.phy 	nbFramesWithInterference 	6096
scalar WirelessNetworkMU.node[20].wlan.phy 	nbFramesWithoutInterference 	35301
scalar WirelessNetworkMU.node[20].wlan.phy 	nbFramesWithInterferencePartial 	273
scalar WirelessNetworkMU.node[20].wlan.phy 	nbFramesWithoutInterferencePartial 	55
scalar WirelessNetworkMU.node[20].wlan.phy 	nbFramesWithInterferenceDropped 	4458
scalar WirelessNetworkMU.node[20].wlan.phy 	nbFramesWithoutInterferenceDropped 	177
scalar WirelessNetworkMU.node[20].batteryStats 	nominal 	1187988120
attr unit  mW-s
scalar WirelessNetworkMU.node[20].batteryStats 	total 	19574.016032457
attr unit  mW-s
scalar WirelessNetworkMU.node[20].batteryStats 	lifetime 	-1
attr unit  s
scalar WirelessNetworkMU.node[20].batteryStats 	"Mean power consumption" 	61.168796771418
attr unit  mW
statistic WirelessNetworkMU.node[21].net 	endToEndDelayRTP:stats
field count 0
field mean 0
field stddev -1.#IND
field sum 0
field sqrsum 0
field min 0
field max 0
attr interpolationmode  none
attr source  endToEndDelayRTP
attr title  "end-to-end delay RTP, stats"
attr unit  s
scalar WirelessNetworkMU.node[21].net 	paquetesRecibidosRTP:sum 	0
attr interpolationmode  none
attr source  recibidosRTP
attr title  "Paquetes recibidos RTP, sum"
scalar WirelessNetworkMU.node[21].net 	paquetesEnviadosWAM:sum 	7927
attr interpolationmode  none
attr source  enviadosWAM
attr title  "Paquetes enviados WAM, sum"
scalar WirelessNetworkMU.node[21].net 	paquetesEnviadosAMR:sum 	2
attr interpolationmode  none
attr source  enviadosAMR
attr title  "Paquetes enviados AMR, sum"
scalar WirelessNetworkMU.node[21].routing 	forwardedRTP:sum 	0
attr interpolationmode  none
attr source  fwdRTP
attr title  "Forwarded RTP, sum"
scalar WirelessNetworkMU.node[21].routing 	forwardedWAM:sum 	0
attr interpolationmode  none
attr source  fwdWAM
attr title  "Forwarded WAM, sum"
scalar WirelessNetworkMU.node[21].routing 	forwardedAMR:sum 	0
attr interpolationmode  none
attr source  fwdAMR
attr title  "Forwarded AMR, sum"
scalar WirelessNetworkMU.node[21].wlan.mac 	nbTxFrames 	10460
scalar WirelessNetworkMU.node[21].wlan.mac 	nbRxFrames 	0
scalar WirelessNetworkMU.node[21].wlan.mac 	nbDroppedFrames 	5719
scalar WirelessNetworkMU.node[21].wlan.mac 	nbMissedAcks 	8630
scalar WirelessNetworkMU.node[21].wlan.mac 	nbRecvdAcks 	1829
scalar WirelessNetworkMU.node[21].wlan.mac 	nbTxAcks 	0
scalar WirelessNetworkMU.node[21].wlan.mac 	nbDuplicates 	0
scalar WirelessNetworkMU.node[21].wlan.mac 	meanBackoff 	0.0032389563704886
scalar WirelessNetworkMU.node[21].wlan.mac 	nbBackoffs 	55192
scalar WirelessNetworkMU.node[21].wlan.mac 	backoffDurations 	178.76448000001
scalar WirelessNetworkMU.node[21].wlan.phy 	nbFramesWithInterference 	31459
scalar WirelessNetworkMU.node[21].wlan.phy 	nbFramesWithoutInterference 	51956
scalar WirelessNetworkMU.node[21].wlan.phy 	nbFramesWithInterferencePartial 	5701
scalar WirelessNetworkMU.node[21].wlan.phy 	nbFramesWithoutInterferencePartial 	2246
scalar WirelessNetworkMU.node[21].wlan.phy 	nbFramesWithInterferenceDropped 	31761
scalar WirelessNetworkMU.node[21].wlan.phy 	nbFramesWithoutInterferenceDropped 	3592
scalar WirelessNetworkMU.node[21].batteryStats 	nominal 	1187988120
attr unit  mW-s
scalar WirelessNetworkMU.node[21].batteryStats 	total 	19758.446707487
attr unit  mW-s
scalar WirelessNetworkMU.node[21].batteryStats 	lifetime 	-1
attr unit  s
scalar WirelessNetworkMU.node[21].batteryStats 	"Mean power consumption" 	61.74514259951
attr unit  mW
statistic WirelessNetworkMU.node[22].net 	endToEndDelayRTP:stats
field count 0
field mean 0
field stddev -1.#IND
field sum 0
field sqrsum 0
field min 0
field max 0
attr interpolationmode  none
attr source  endToEndDelayRTP
attr title  "end-to-end delay RTP, stats"
attr unit  s
scalar WirelessNetworkMU.node[22].net 	paquetesRecibidosRTP:sum 	0
attr interpolationmode  none
attr source  recibidosRTP
attr title  "Paquetes recibidos RTP, sum"
scalar WirelessNetworkMU.node[22].net 	paquetesEnviadosWAM:sum 	7848
attr interpolationmode  none
attr source  enviadosWAM
attr title  "Paquetes enviados WAM, sum"
scalar WirelessNetworkMU.node[22].net 	paquetesEnviadosAMR:sum 	2
attr interpolationmode  none
attr source  enviadosAMR
attr title  "Paquetes enviados AMR, sum"
scalar WirelessNetworkMU.node[22].routing 	forwardedRTP:sum 	0
attr interpolationmode  none
attr source  fwdRTP
attr title  "Forwarded RTP, sum"
scalar WirelessNetworkMU.node[22].routing 	forwardedWAM:sum 	0
attr interpolationmode  none
attr source  fwdWAM
attr title  "Forwarded WAM, sum"
scalar WirelessNetworkMU.node[22].routing 	forwardedAMR:sum 	0
attr interpolationmode  none
attr source  fwdAMR
attr title  "Forwarded AMR, sum"
scalar WirelessNetworkMU.node[22].wlan.mac 	nbTxFrames 	9462
scalar WirelessNetworkMU.node[22].wlan.mac 	nbRxFrames 	0
scalar WirelessNetworkMU.node[22].wlan.mac 	nbDroppedFrames 	6187
scalar WirelessNetworkMU.node[22].wlan.mac 	nbMissedAcks 	8120
scalar WirelessNetworkMU.node[22].wlan.mac 	nbRecvdAcks 	1342
scalar WirelessNetworkMU.node[22].wlan.mac 	nbTxAcks 	0
scalar WirelessNetworkMU.node[22].wlan.mac 	nbDuplicates 	0
scalar WirelessNetworkMU.node[22].wlan.mac 	meanBackoff 	0.0032667990898915
scalar WirelessNetworkMU.node[22].wlan.mac 	nbBackoffs 	55378
scalar WirelessNetworkMU.node[22].wlan.mac 	backoffDurations 	180.90880000001
scalar WirelessNetworkMU.node[22].wlan.phy 	nbFramesWithInterference 	36457
scalar WirelessNetworkMU.node[22].wlan.phy 	nbFramesWithoutInterference 	40363
scalar WirelessNetworkMU.node[22].wlan.phy 	nbFramesWithInterferencePartial 	7846
scalar WirelessNetworkMU.node[22].wlan.phy 	nbFramesWithoutInterferencePartial 	3957
scalar WirelessNetworkMU.node[22].wlan.phy 	nbFramesWithInterferenceDropped 	41808
scalar WirelessNetworkMU.node[22].wlan.phy 	nbFramesWithoutInterferenceDropped 	4361
scalar WirelessNetworkMU.node[22].batteryStats 	nominal 	1187988120
attr unit  mW-s
scalar WirelessNetworkMU.node[22].batteryStats 	total 	19767.469761848
attr unit  mW-s
scalar WirelessNetworkMU.node[22].batteryStats 	lifetime 	-1
attr unit  s
scalar WirelessNetworkMU.node[22].batteryStats 	"Mean power consumption" 	61.773339642854
attr unit  mW
statistic WirelessNetworkMU.node[23].net 	endToEndDelayRTP:stats
field count 0
field mean 0
field stddev -1.#IND
field sum 0
field sqrsum 0
field min 0
field max 0
attr interpolationmode  none
attr source  endToEndDelayRTP
attr title  "end-to-end delay RTP, stats"
attr unit  s
scalar WirelessNetworkMU.node[23].net 	paquetesRecibidosRTP:sum 	0
attr interpolationmode  none
attr source  recibidosRTP
attr title  "Paquetes recibidos RTP, sum"
scalar WirelessNetworkMU.node[23].net 	paquetesEnviadosWAM:sum 	7781
attr interpolationmode  none
attr source  enviadosWAM
attr title  "Paquetes enviados WAM, sum"
scalar WirelessNetworkMU.node[23].net 	paquetesEnviadosAMR:sum 	2
attr interpolationmode  none
attr source  enviadosAMR
attr title  "Paquetes enviados AMR, sum"
scalar WirelessNetworkMU.node[23].routing 	forwardedRTP:sum 	0
attr interpolationmode  none
attr source  fwdRTP
attr title  "Forwarded RTP, sum"
scalar WirelessNetworkMU.node[23].routing 	forwardedWAM:sum 	0
attr interpolationmode  none
attr source  fwdWAM
attr title  "Forwarded WAM, sum"
scalar WirelessNetworkMU.node[23].routing 	forwardedAMR:sum 	0
attr interpolationmode  none
attr source  fwdAMR
attr title  "Forwarded AMR, sum"
scalar WirelessNetworkMU.node[23].wlan.mac 	nbTxFrames 	7264
scalar WirelessNetworkMU.node[23].wlan.mac 	nbRxFrames 	0
scalar WirelessNetworkMU.node[23].wlan.mac 	nbDroppedFrames 	6756
scalar WirelessNetworkMU.node[23].wlan.mac 	nbMissedAcks 	6398
scalar WirelessNetworkMU.node[23].wlan.mac 	nbRecvdAcks 	866
scalar WirelessNetworkMU.node[23].wlan.mac 	nbTxAcks 	0
scalar WirelessNetworkMU.node[23].wlan.mac 	nbDuplicates 	0
scalar WirelessNetworkMU.node[23].wlan.mac 	meanBackoff 	0.0033593670435159
scalar WirelessNetworkMU.node[23].wlan.mac 	nbBackoffs 	53337
scalar WirelessNetworkMU.node[23].wlan.mac 	backoffDurations 	179.17856000001
scalar WirelessNetworkMU.node[23].wlan.phy 	nbFramesWithInterference 	33407
scalar WirelessNetworkMU.node[23].wlan.phy 	nbFramesWithoutInterference 	32710
scalar WirelessNetworkMU.node[23].wlan.phy 	nbFramesWithInterferencePartial 	7772
scalar WirelessNetworkMU.node[23].wlan.phy 	nbFramesWithoutInterferencePartial 	5582
scalar WirelessNetworkMU.node[23].wlan.phy 	nbFramesWithInterferenceDropped 	48092
scalar WirelessNetworkMU.node[23].wlan.phy 	nbFramesWithoutInterferenceDropped 	5135
scalar WirelessNetworkMU.node[23].batteryStats 	nominal 	1187988120
attr unit  mW-s
scalar WirelessNetworkMU.node[23].batteryStats 	total 	19787.291950703
attr unit  mW-s
scalar WirelessNetworkMU.node[23].batteryStats 	lifetime 	-1
attr unit  s
scalar WirelessNetworkMU.node[23].batteryStats 	"Mean power consumption" 	61.835283979651
attr unit  mW
statistic WirelessNetworkMU.node[24].net 	endToEndDelayRTP:stats
field count 0
field mean 0
field stddev -1.#IND
field sum 0
field sqrsum 0
field min 0
field max 0
attr interpolationmode  none
attr source  endToEndDelayRTP
attr title  "end-to-end delay RTP, stats"
attr unit  s
scalar WirelessNetworkMU.node[24].net 	paquetesRecibidosRTP:sum 	0
attr interpolationmode  none
attr source  recibidosRTP
attr title  "Paquetes recibidos RTP, sum"
scalar WirelessNetworkMU.node[24].net 	paquetesEnviadosWAM:sum 	7861
attr interpolationmode  none
attr source  enviadosWAM
attr title  "Paquetes enviados WAM, sum"
scalar WirelessNetworkMU.node[24].net 	paquetesEnviadosAMR:sum 	2
attr interpolationmode  none
attr source  enviadosAMR
attr title  "Paquetes enviados AMR, sum"
scalar WirelessNetworkMU.node[24].routing 	forwardedRTP:sum 	0
attr interpolationmode  none
attr source  fwdRTP
attr title  "Forwarded RTP, sum"
scalar WirelessNetworkMU.node[24].routing 	forwardedWAM:sum 	0
attr interpolationmode  none
attr source  fwdWAM
attr title  "Forwarded WAM, sum"
scalar WirelessNetworkMU.node[24].routing 	forwardedAMR:sum 	0
attr interpolationmode  none
attr source  fwdAMR
attr title  "Forwarded AMR, sum"
scalar WirelessNetworkMU.node[24].wlan.mac 	nbTxFrames 	15950
scalar WirelessNetworkMU.node[24].wlan.mac 	nbRxFrames 	53
scalar WirelessNetworkMU.node[24].wlan.mac 	nbDroppedFrames 	2734
scalar WirelessNetworkMU.node[24].wlan.mac 	nbMissedAcks 	13204
scalar WirelessNetworkMU.node[24].wlan.mac 	nbRecvdAcks 	2746
scalar WirelessNetworkMU.node[24].wlan.mac 	nbTxAcks 	13441
scalar WirelessNetworkMU.node[24].wlan.mac 	nbDuplicates 	197
scalar WirelessNetworkMU.node[24].wlan.mac 	meanBackoff 	0.0030229187322099
scalar WirelessNetworkMU.node[24].wlan.mac 	nbBackoffs 	62534
scalar WirelessNetworkMU.node[24].wlan.mac 	backoffDurations 	189.03520000001
scalar WirelessNetworkMU.node[24].wlan.phy 	nbFramesWithInterference 	18047
scalar WirelessNetworkMU.node[24].wlan.phy 	nbFramesWithoutInterference 	49186
scalar WirelessNetworkMU.node[24].wlan.phy 	nbFramesWithInterferencePartial 	1965
scalar WirelessNetworkMU.node[24].wlan.phy 	nbFramesWithoutInterferencePartial 	647
scalar WirelessNetworkMU.node[24].wlan.phy 	nbFramesWithInterferenceDropped 	16668
scalar WirelessNetworkMU.node[24].wlan.phy 	nbFramesWithoutInterferenceDropped 	1339
scalar WirelessNetworkMU.node[24].batteryStats 	nominal 	1187988120
attr unit  mW-s
scalar WirelessNetworkMU.node[24].batteryStats 	total 	19687.010000467
attr unit  mW-s
scalar WirelessNetworkMU.node[24].batteryStats 	lifetime 	-1
attr unit  s
scalar WirelessNetworkMU.node[24].batteryStats 	"Mean power consumption" 	61.521902902226
attr unit  mW
statistic WirelessNetworkMU.node[25].net 	endToEndDelayRTP:stats
field count 0
field mean 0
field stddev -1.#IND
field sum 0
field sqrsum 0
field min 0
field max 0
attr interpolationmode  none
attr source  endToEndDelayRTP
attr title  "end-to-end delay RTP, stats"
attr unit  s
scalar WirelessNetworkMU.node[25].net 	paquetesRecibidosRTP:sum 	0
attr interpolationmode  none
attr source  recibidosRTP
attr title  "Paquetes recibidos RTP, sum"
scalar WirelessNetworkMU.node[25].net 	paquetesEnviadosWAM:sum 	7769
attr interpolationmode  none
attr source  enviadosWAM
attr title  "Paquetes enviados WAM, sum"
scalar WirelessNetworkMU.node[25].net 	paquetesEnviadosAMR:sum 	2
attr interpolationmode  none
attr source  enviadosAMR
attr title  "Paquetes enviados AMR, sum"
scalar WirelessNetworkMU.node[25].routing 	forwardedRTP:sum 	0
attr interpolationmode  none
attr source  fwdRTP
attr title  "Forwarded RTP, sum"
scalar WirelessNetworkMU.node[25].routing 	forwardedWAM:sum 	0
attr interpolationmode  none
attr source  fwdWAM
attr title  "Forwarded WAM, sum"
scalar WirelessNetworkMU.node[25].routing 	forwardedAMR:sum 	0
attr interpolationmode  none
attr source  fwdAMR
attr title  "Forwarded AMR, sum"
scalar WirelessNetworkMU.node[25].wlan.mac 	nbTxFrames 	10607
scalar WirelessNetworkMU.node[25].wlan.mac 	nbRxFrames 	40
scalar WirelessNetworkMU.node[25].wlan.mac 	nbDroppedFrames 	5365
scalar WirelessNetworkMU.node[25].wlan.mac 	nbMissedAcks 	8823
scalar WirelessNetworkMU.node[25].wlan.mac 	nbRecvdAcks 	1784
scalar WirelessNetworkMU.node[25].wlan.mac 	nbTxAcks 	4281
scalar WirelessNetworkMU.node[25].wlan.mac 	nbDuplicates 	123
scalar WirelessNetworkMU.node[25].wlan.mac 	meanBackoff 	0.0032586116361747
scalar WirelessNetworkMU.node[25].wlan.mac 	nbBackoffs 	57665
scalar WirelessNetworkMU.node[25].wlan.mac 	backoffDurations 	187.90784000001
scalar WirelessNetworkMU.node[25].wlan.phy 	nbFramesWithInterference 	33225
scalar WirelessNetworkMU.node[25].wlan.phy 	nbFramesWithoutInterference 	40426
scalar WirelessNetworkMU.node[25].wlan.phy 	nbFramesWithInterferencePartial 	6195
scalar WirelessNetworkMU.node[25].wlan.phy 	nbFramesWithoutInterferencePartial 	2754
scalar WirelessNetworkMU.node[25].wlan.phy 	nbFramesWithInterferenceDropped 	35821
scalar WirelessNetworkMU.node[25].wlan.phy 	nbFramesWithoutInterferenceDropped 	3503
scalar WirelessNetworkMU.node[25].batteryStats 	nominal 	1187988120
attr unit  mW-s
scalar WirelessNetworkMU.node[25].batteryStats 	total 	19750.00050354
attr unit  mW-s
scalar WirelessNetworkMU.node[25].batteryStats 	lifetime 	-1
attr unit  s
scalar WirelessNetworkMU.node[25].batteryStats 	"Mean power consumption" 	61.718748213612
attr unit  mW
statistic WirelessNetworkMU.node[26].net 	endToEndDelayRTP:stats
field count 1
field mean 0.033628270079
field stddev -1.#IND
field sum 0.033628270079
field sqrsum 0.0011308605485062
field min 0.033628270079
field max 0.033628270079
attr interpolationmode  none
attr source  endToEndDelayRTP
attr title  "end-to-end delay RTP, stats"
attr unit  s
scalar WirelessNetworkMU.node[26].net 	paquetesRecibidosRTP:sum 	1
attr interpolationmode  none
attr source  recibidosRTP
attr title  "Paquetes recibidos RTP, sum"
scalar WirelessNetworkMU.node[26].net 	paquetesEnviadosWAM:sum 	7768
attr interpolationmode  none
attr source  enviadosWAM
attr title  "Paquetes enviados WAM, sum"
scalar WirelessNetworkMU.node[26].net 	paquetesEnviadosAMR:sum 	2
attr interpolationmode  none
attr source  enviadosAMR
attr title  "Paquetes enviados AMR, sum"
scalar WirelessNetworkMU.node[26].routing 	forwardedRTP:sum 	0
attr interpolationmode  none
attr source  fwdRTP
attr title  "Forwarded RTP, sum"
scalar WirelessNetworkMU.node[26].routing 	forwardedWAM:sum 	0
attr interpolationmode  none
attr source  fwdWAM
attr title  "Forwarded WAM, sum"
scalar WirelessNetworkMU.node[26].routing 	forwardedAMR:sum 	0
attr interpolationmode  none
attr source  fwdAMR
attr title  "Forwarded AMR, sum"
scalar WirelessNetworkMU.node[26].wlan.mac 	nbTxFrames 	7886
scalar WirelessNetworkMU.node[26].wlan.mac 	nbRxFrames 	73
scalar WirelessNetworkMU.node[26].wlan.mac 	nbDroppedFrames 	6230
scalar WirelessNetworkMU.node[26].wlan.mac 	nbMissedAcks 	5471
scalar WirelessNetworkMU.node[26].wlan.mac 	nbRecvdAcks 	2415
scalar WirelessNetworkMU.node[26].wlan.mac 	nbTxAcks 	6434
scalar WirelessNetworkMU.node[26].wlan.mac 	nbDuplicates 	129
scalar WirelessNetworkMU.node[26].wlan.mac 	meanBackoff 	0.0034136387326843
scalar WirelessNetworkMU.node[26].wlan.mac 	nbBackoffs 	58328
scalar WirelessNetworkMU.node[26].wlan.mac 	backoffDurations 	199.11072000001
scalar WirelessNetworkMU.node[26].wlan.phy 	nbFramesWithInterference 	38233
scalar WirelessNetworkMU.node[26].wlan.phy 	nbFramesWithoutInterference 	43854
scalar WirelessNetworkMU.node[26].wlan.phy 	nbFramesWithInterferencePartial 	7787
scalar WirelessNetworkMU.node[26].wlan.phy 	nbFramesWithoutInterferencePartial 	5480
scalar WirelessNetworkMU.node[26].wlan.phy 	nbFramesWithInterferenceDropped 	43938
scalar WirelessNetworkMU.node[26].wlan.phy 	nbFramesWithoutInterferenceDropped 	5952
scalar WirelessNetworkMU.node[26].batteryStats 	nominal 	1187988120
attr unit  mW-s
scalar WirelessNetworkMU.node[26].batteryStats 	total 	19770.900664806
attr unit  mW-s
scalar WirelessNetworkMU.node[26].batteryStats 	lifetime 	-1
attr unit  s
scalar WirelessNetworkMU.node[26].batteryStats 	"Mean power consumption" 	61.784061214014
attr unit  mW
statistic WirelessNetworkMU.node[27].net 	endToEndDelayRTP:stats
field count 0
field mean 0
field stddev -1.#IND
field sum 0
field sqrsum 0
field min 0
field max 0
attr interpolationmode  none
attr source  endToEndDelayRTP
attr title  "end-to-end delay RTP, stats"
attr unit  s
scalar WirelessNetworkMU.node[27].net 	paquetesRecibidosRTP:sum 	0
attr interpolationmode  none
attr source  recibidosRTP
attr title  "Paquetes recibidos RTP, sum"
scalar WirelessNetworkMU.node[27].net 	paquetesEnviadosWAM:sum 	7957
attr interpolationmode  none
attr source  enviadosWAM
attr title  "Paquetes enviados WAM, sum"
scalar WirelessNetworkMU.node[27].net 	paquetesEnviadosAMR:sum 	2
attr interpolationmode  none
attr source  enviadosAMR
attr title  "Paquetes enviados AMR, sum"
scalar WirelessNetworkMU.node[27].routing 	forwardedRTP:sum 	0
attr interpolationmode  none
attr source  fwdRTP
attr title  "Forwarded RTP, sum"
scalar WirelessNetworkMU.node[27].routing 	forwardedWAM:sum 	0
attr interpolationmode  none
attr source  fwdWAM
attr title  "Forwarded WAM, sum"
scalar WirelessNetworkMU.node[27].routing 	forwardedAMR:sum 	0
attr interpolationmode  none
attr source  fwdAMR
attr title  "Forwarded AMR, sum"
scalar WirelessNetworkMU.node[27].wlan.mac 	nbTxFrames 	13884
scalar WirelessNetworkMU.node[27].wlan.mac 	nbRxFrames 	0
scalar WirelessNetworkMU.node[27].wlan.mac 	nbDroppedFrames 	4561
scalar WirelessNetworkMU.node[27].wlan.mac 	nbMissedAcks 	12192
scalar WirelessNetworkMU.node[27].wlan.mac 	nbRecvdAcks 	1692
scalar WirelessNetworkMU.node[27].wlan.mac 	nbTxAcks 	0
scalar WirelessNetworkMU.node[27].wlan.mac 	nbDuplicates 	0
scalar WirelessNetworkMU.node[27].wlan.mac 	meanBackoff 	0.0030873126299937
scalar WirelessNetworkMU.node[27].wlan.mac 	nbBackoffs 	55772
scalar WirelessNetworkMU.node[27].wlan.mac 	backoffDurations 	172.18560000001
scalar WirelessNetworkMU.node[27].wlan.phy 	nbFramesWithInterference 	24136
scalar WirelessNetworkMU.node[27].wlan.phy 	nbFramesWithoutInterference 	55822
scalar WirelessNetworkMU.node[27].wlan.phy 	nbFramesWithInterferencePartial 	3905
scalar WirelessNetworkMU.node[27].wlan.phy 	nbFramesWithoutInterferencePartial 	1349
scalar WirelessNetworkMU.node[27].wlan.phy 	nbFramesWithInterferenceDropped 	23963
scalar WirelessNetworkMU.node[27].wlan.phy 	nbFramesWithoutInterferenceDropped 	2784
scalar WirelessNetworkMU.node[27].batteryStats 	nominal 	1187988120
attr unit  mW-s
scalar WirelessNetworkMU.node[27].batteryStats 	total 	19727.499854088
attr unit  mW-s
scalar WirelessNetworkMU.node[27].batteryStats 	lifetime 	-1
attr unit  s
scalar WirelessNetworkMU.node[27].batteryStats 	"Mean power consumption" 	61.648433687902
attr unit  mW
statistic WirelessNetworkMU.node[28].net 	endToEndDelayRTP:stats
field count 0
field mean 0
field stddev -1.#IND
field sum 0
field sqrsum 0
field min 0
field max 0
attr interpolationmode  none
attr source  endToEndDelayRTP
attr title  "end-to-end delay RTP, stats"
attr unit  s
scalar WirelessNetworkMU.node[28].net 	paquetesRecibidosRTP:sum 	0
attr interpolationmode  none
attr source  recibidosRTP
attr title  "Paquetes recibidos RTP, sum"
scalar WirelessNetworkMU.node[28].net 	paquetesEnviadosWAM:sum 	7913
attr interpolationmode  none
attr source  enviadosWAM
attr title  "Paquetes enviados WAM, sum"
scalar WirelessNetworkMU.node[28].net 	paquetesEnviadosAMR:sum 	2
attr interpolationmode  none
attr source  enviadosAMR
attr title  "Paquetes enviados AMR, sum"
scalar WirelessNetworkMU.node[28].routing 	forwardedRTP:sum 	0
attr interpolationmode  none
attr source  fwdRTP
attr title  "Forwarded RTP, sum"
scalar WirelessNetworkMU.node[28].routing 	forwardedWAM:sum 	0
attr interpolationmode  none
attr source  fwdWAM
attr title  "Forwarded WAM, sum"
scalar WirelessNetworkMU.node[28].routing 	forwardedAMR:sum 	0
attr interpolationmode  none
attr source  fwdAMR
attr title  "Forwarded AMR, sum"
scalar WirelessNetworkMU.node[28].wlan.mac 	nbTxFrames 	15488
scalar WirelessNetworkMU.node[28].wlan.mac 	nbRxFrames 	0
scalar WirelessNetworkMU.node[28].wlan.mac 	nbDroppedFrames 	3953
scalar WirelessNetworkMU.node[28].wlan.mac 	nbMissedAcks 	12961
scalar WirelessNetworkMU.node[28].wlan.mac 	nbRecvdAcks 	2527
scalar WirelessNetworkMU.node[28].wlan.mac 	nbTxAcks 	0
scalar WirelessNetworkMU.node[28].wlan.mac 	nbDuplicates 	0
scalar WirelessNetworkMU.node[28].wlan.mac 	meanBackoff 	0.0029838547225905
scalar WirelessNetworkMU.node[28].wlan.mac 	nbBackoffs 	55838
scalar WirelessNetworkMU.node[28].wlan.mac 	backoffDurations 	166.61248000001
scalar WirelessNetworkMU.node[28].wlan.phy 	nbFramesWithInterference 	24466
scalar WirelessNetworkMU.node[28].wlan.phy 	nbFramesWithoutInterference 	62471
scalar WirelessNetworkMU.node[28].wlan.phy 	nbFramesWithInterferencePartial 	3877
scalar WirelessNetworkMU.node[28].wlan.phy 	nbFramesWithoutInterferencePartial 	973
scalar WirelessNetworkMU.node[28].wlan.phy 	nbFramesWithInterferenceDropped 	20645
scalar WirelessNetworkMU.node[28].wlan.phy 	nbFramesWithoutInterferenceDropped 	1759
scalar WirelessNetworkMU.node[28].batteryStats 	nominal 	1187988120
attr unit  mW-s
scalar WirelessNetworkMU.node[28].batteryStats 	total 	19713.034585476
attr unit  mW-s
[...]
scalar WirelessNetworkMU.node[54].wlan.mac 	nbBackoffs 	50967
scalar WirelessNetworkMU.node[54].wlan.mac 	backoffDurations 	164.13728000001
scalar WirelessNetworkMU.node[54].wlan.phy 	nbFramesWithInterference 	37603
scalar WirelessNetworkMU.node[54].wlan.phy 	nbFramesWithoutInterference 	55300
scalar WirelessNetworkMU.node[54].wlan.phy 	nbFramesWithInterferencePartial 	6585
scalar WirelessNetworkMU.node[54].wlan.phy 	nbFramesWithoutInterferencePartial 	4140
scalar WirelessNetworkMU.node[54].wlan.phy 	nbFramesWithInterferenceDropped 	35548
scalar WirelessNetworkMU.node[54].wlan.phy 	nbFramesWithoutInterferenceDropped 	4982
scalar WirelessNetworkMU.node[54].batteryStats 	nominal 	1187988120
attr unit  mW-s
scalar WirelessNetworkMU.node[54].batteryStats 	total 	19761.64356184
attr unit  mW-s
scalar WirelessNetworkMU.node[54].batteryStats 	lifetime 	-1
attr unit  s
scalar WirelessNetworkMU.node[54].batteryStats 	"Mean power consumption" 	61.755132768819
attr unit  mW
statistic WirelessNetworkMU.node[55].net 	endToEndDelayRTP:stats
field count 0
field mean 0
field stddev -1.#IND
field sum 0
field sqrsum 0
field min 0
field max 0
attr interpolationmode  none
attr source  endToEndDelayRTP
attr title  "end-to-end delay RTP, stats"
attr unit  s
scalar WirelessNetworkMU.node[55].net 	paquetesRecibidosRTP:sum 	0
attr interpolationmode  none
attr source  recibidosRTP
attr title  "Paquetes recibidos RTP, sum"
scalar WirelessNetworkMU.node[55].net 	paquetesEnviadosWAM:sum 	7919
attr interpolationmode  none
attr source  enviadosWAM
attr title  "Paquetes enviados WAM, sum"
scalar WirelessNetworkMU.node[55].net 	paquetesEnviadosAMR:sum 	2
attr interpolationmode  none
attr source  enviadosAMR
attr title  "Paquetes enviados AMR, sum"
scalar WirelessNetworkMU.node[55].routing 	forwardedRTP:sum 	0
attr interpolationmode  none
attr source  fwdRTP
attr title  "Forwarded RTP, sum"
scalar WirelessNetworkMU.node[55].routing 	forwardedWAM:sum 	0
attr interpolationmode  none
attr source  fwdWAM
attr title  "Forwarded WAM, sum"
scalar WirelessNetworkMU.node[55].routing 	forwardedAMR:sum 	0
attr interpolationmode  none
attr source  fwdAMR
attr title  "Forwarded AMR, sum"
scalar WirelessNetworkMU.node[55].wlan.mac 	nbTxFrames 	19755
scalar WirelessNetworkMU.node[55].wlan.mac 	nbRxFrames 	0
scalar WirelessNetworkMU.node[55].wlan.mac 	nbDroppedFrames 	624
scalar WirelessNetworkMU.node[55].wlan.mac 	nbMissedAcks 	13456
scalar WirelessNetworkMU.node[55].wlan.mac 	nbRecvdAcks 	6299
scalar WirelessNetworkMU.node[55].wlan.mac 	nbTxAcks 	0
scalar WirelessNetworkMU.node[55].wlan.mac 	nbDuplicates 	0
scalar WirelessNetworkMU.node[55].wlan.mac 	meanBackoff 	0.0022831653780293
scalar WirelessNetworkMU.node[55].wlan.mac 	nbBackoffs 	38542
scalar WirelessNetworkMU.node[55].wlan.mac 	backoffDurations 	87.997760000005
scalar WirelessNetworkMU.node[55].wlan.phy 	nbFramesWithInterference 	11458
scalar WirelessNetworkMU.node[55].wlan.phy 	nbFramesWithoutInterference 	48941
scalar WirelessNetworkMU.node[55].wlan.phy 	nbFramesWithInterferencePartial 	556
scalar WirelessNetworkMU.node[55].wlan.phy 	nbFramesWithoutInterferencePartial 	336
scalar WirelessNetworkMU.node[55].wlan.phy 	nbFramesWithInterferenceDropped 	8344
scalar WirelessNetworkMU.node[55].wlan.phy 	nbFramesWithoutInterferenceDropped 	765
scalar WirelessNetworkMU.node[55].batteryStats 	nominal 	1187988120
attr unit  mW-s
scalar WirelessNetworkMU.node[55].batteryStats 	total 	19674.485420227
attr unit  mW-s
scalar WirelessNetworkMU.node[55].batteryStats 	lifetime 	-1
attr unit  s
scalar WirelessNetworkMU.node[55].batteryStats 	"Mean power consumption" 	61.482763591106
attr unit  mW
statistic WirelessNetworkMU.node[56].net 	endToEndDelayRTP:stats
field count 0
field mean 0
field stddev -1.#IND
field sum 0
field sqrsum 0
field min 0
field max 0
attr interpolationmode  none
attr source  endToEndDelayRTP
attr title  "end-to-end delay RTP, stats"
attr unit  s
scalar WirelessNetworkMU.node[56].net 	paquetesRecibidosRTP:sum 	0
attr interpolationmode  none
attr source  recibidosRTP
attr title  "Paquetes recibidos RTP, sum"
scalar WirelessNetworkMU.node[56].net 	paquetesEnviadosWAM:sum 	7905
attr interpolationmode  none
attr source  enviadosWAM
attr title  "Paquetes enviados WAM, sum"
scalar WirelessNetworkMU.node[56].net 	paquetesEnviadosAMR:sum 	2
attr interpolationmode  none
attr source  enviadosAMR
attr title  "Paquetes enviados AMR, sum"
scalar WirelessNetworkMU.node[56].routing 	forwardedRTP:sum 	0
attr interpolationmode  none
attr source  fwdRTP
attr title  "Forwarded RTP, sum"
scalar WirelessNetworkMU.node[56].routing 	forwardedWAM:sum 	0
attr interpolationmode  none
attr source  fwdWAM
attr title  "Forwarded WAM, sum"
scalar WirelessNetworkMU.node[56].routing 	forwardedAMR:sum 	0
attr interpolationmode  none
attr source  fwdAMR
attr title  "Forwarded AMR, sum"
scalar WirelessNetworkMU.node[56].wlan.mac 	nbTxFrames 	11924
scalar WirelessNetworkMU.node[56].wlan.mac 	nbRxFrames 	0
scalar WirelessNetworkMU.node[56].wlan.mac 	nbDroppedFrames 	5257
scalar WirelessNetworkMU.node[56].wlan.mac 	nbMissedAcks 	10030
scalar WirelessNetworkMU.node[56].wlan.mac 	nbRecvdAcks 	1894
scalar WirelessNetworkMU.node[56].wlan.mac 	nbTxAcks 	0
scalar WirelessNetworkMU.node[56].wlan.mac 	nbDuplicates 	0
scalar WirelessNetworkMU.node[56].wlan.mac 	meanBackoff 	0.0031563158933153
scalar WirelessNetworkMU.node[56].wlan.mac 	nbBackoffs 	55753
scalar WirelessNetworkMU.node[56].wlan.mac 	backoffDurations 	175.97408000001
scalar WirelessNetworkMU.node[56].wlan.phy 	nbFramesWithInterference 	33204
scalar WirelessNetworkMU.node[56].wlan.phy 	nbFramesWithoutInterference 	44367
scalar WirelessNetworkMU.node[56].wlan.phy 	nbFramesWithInterferencePartial 	5893
scalar WirelessNetworkMU.node[56].wlan.phy 	nbFramesWithoutInterferencePartial 	2759
scalar WirelessNetworkMU.node[56].wlan.phy 	nbFramesWithInterferenceDropped 	34162
scalar WirelessNetworkMU.node[56].wlan.phy 	nbFramesWithoutInterferenceDropped 	3592
scalar WirelessNetworkMU.node[56].batteryStats 	nominal 	1187988120
attr unit  mW-s
scalar WirelessNetworkMU.node[56].batteryStats 	total 	19745.266760349
attr unit  mW-s
scalar WirelessNetworkMU.node[56].batteryStats 	lifetime 	-1
attr unit  s
scalar WirelessNetworkMU.node[56].batteryStats 	"Mean power consumption" 	61.703955266946
attr unit  mW
statistic WirelessNetworkMU.node[57].net 	endToEndDelayRTP:stats
field count 0
field mean 0
field stddev -1.#IND
field sum 0
field sqrsum 0
field min 0
field max 0
attr interpolationmode  none
attr source  endToEndDelayRTP
attr title  "end-to-end delay RTP, stats"
attr unit  s
scalar WirelessNetworkMU.node[57].net 	paquetesRecibidosRTP:sum 	0
attr interpolationmode  none
attr source  recibidosRTP
attr title  "Paquetes recibidos RTP, sum"
scalar WirelessNetworkMU.node[57].net 	paquetesEnviadosWAM:sum 	7758
attr interpolationmode  none
attr source  enviadosWAM
attr title  "Paquetes enviados WAM, sum"
scalar WirelessNetworkMU.node[57].net 	paquetesEnviadosAMR:sum 	2
attr interpolationmode  none
attr source  enviadosAMR
attr title  "Paquetes enviados AMR, sum"
scalar WirelessNetworkMU.node[57].routing 	forwardedRTP:sum 	0
attr interpolationmode  none
attr source  fwdRTP
attr title  "Forwarded RTP, sum"
scalar WirelessNetworkMU.node[57].routing 	forwardedWAM:sum 	0
attr interpolationmode  none
attr source  fwdWAM
attr title  "Forwarded WAM, sum"
scalar WirelessNetworkMU.node[57].routing 	forwardedAMR:sum 	0
attr interpolationmode  none
attr source  fwdAMR
attr title  "Forwarded AMR, sum"
scalar WirelessNetworkMU.node[57].wlan.mac 	nbTxFrames 	4784
scalar WirelessNetworkMU.node[57].wlan.mac 	nbRxFrames 	0
scalar WirelessNetworkMU.node[57].wlan.mac 	nbDroppedFrames 	5900
scalar WirelessNetworkMU.node[57].wlan.mac 	nbMissedAcks 	2934
scalar WirelessNetworkMU.node[57].wlan.mac 	nbRecvdAcks 	1850
scalar WirelessNetworkMU.node[57].wlan.mac 	nbTxAcks 	0
scalar WirelessNetworkMU.node[57].wlan.mac 	nbDuplicates 	0
scalar WirelessNetworkMU.node[57].wlan.mac 	meanBackoff 	0.0034171233655488
scalar WirelessNetworkMU.node[57].wlan.mac 	nbBackoffs 	42216
scalar WirelessNetworkMU.node[57].wlan.mac 	backoffDurations 	144.25728000001
scalar WirelessNetworkMU.node[57].wlan.phy 	nbFramesWithInterference 	42270
scalar WirelessNetworkMU.node[57].wlan.phy 	nbFramesWithoutInterference 	39681
scalar WirelessNetworkMU.node[57].wlan.phy 	nbFramesWithInterferencePartial 	11765
scalar WirelessNetworkMU.node[57].wlan.phy 	nbFramesWithoutInterferencePartial 	8702
scalar WirelessNetworkMU.node[57].wlan.phy 	nbFramesWithInterferenceDropped 	55586
scalar WirelessNetworkMU.node[57].wlan.phy 	nbFramesWithoutInterferenceDropped 	8353
scalar WirelessNetworkMU.node[57].batteryStats 	nominal 	1187988120
attr unit  mW-s
scalar WirelessNetworkMU.node[57].batteryStats 	total 	19809.657373667
attr unit  mW-s
scalar WirelessNetworkMU.node[57].batteryStats 	lifetime 	-1
attr unit  s
scalar WirelessNetworkMU.node[57].batteryStats 	"Mean power consumption" 	61.905175922609
attr unit  mW
statistic WirelessNetworkMU.node[58].net 	endToEndDelayRTP:stats
field count 0
field mean 0
field stddev -1.#IND
field sum 0
field sqrsum 0
field min 0
field max 0
attr interpolationmode  none
attr source  endToEndDelayRTP
attr title  "end-to-end delay RTP, stats"
attr unit  s
scalar WirelessNetworkMU.node[58].net 	paquetesRecibidosRTP:sum 	0
attr interpolationmode  none
attr source  recibidosRTP
attr title  "Paquetes recibidos RTP, sum"
scalar WirelessNetworkMU.node[58].net 	paquetesEnviadosWAM:sum 	7843
attr interpolationmode  none
attr source  enviadosWAM
attr title  "Paquetes enviados WAM, sum"
scalar WirelessNetworkMU.node[58].net 	paquetesEnviadosAMR:sum 	2
attr interpolationmode  none
attr source  enviadosAMR
attr title  "Paquetes enviados AMR, sum"
scalar WirelessNetworkMU.node[58].routing 	forwardedRTP:sum 	0
attr interpolationmode  none
attr source  fwdRTP
attr title  "Forwarded RTP, sum"
scalar WirelessNetworkMU.node[58].routing 	forwardedWAM:sum 	0
attr interpolationmode  none
attr source  fwdWAM
attr title  "Forwarded WAM, sum"
scalar WirelessNetworkMU.node[58].routing 	forwardedAMR:sum 	0
attr interpolationmode  none
attr source  fwdAMR
attr title  "Forwarded AMR, sum"
scalar WirelessNetworkMU.node[58].wlan.mac 	nbTxFrames 	9612
scalar WirelessNetworkMU.node[58].wlan.mac 	nbRxFrames 	0
scalar WirelessNetworkMU.node[58].wlan.mac 	nbDroppedFrames 	6048
scalar WirelessNetworkMU.node[58].wlan.mac 	nbMissedAcks 	8264
scalar WirelessNetworkMU.node[58].wlan.mac 	nbRecvdAcks 	1347
scalar WirelessNetworkMU.node[58].wlan.mac 	nbTxAcks 	0
scalar WirelessNetworkMU.node[58].wlan.mac 	nbDuplicates 	0
scalar WirelessNetworkMU.node[58].wlan.mac 	meanBackoff 	0.003276823595323
scalar WirelessNetworkMU.node[58].wlan.mac 	nbBackoffs 	55333
scalar WirelessNetworkMU.node[58].wlan.mac 	backoffDurations 	181.31648000001
scalar WirelessNetworkMU.node[58].wlan.phy 	nbFramesWithInterference 	42788
scalar WirelessNetworkMU.node[58].wlan.phy 	nbFramesWithoutInterference 	47962
scalar WirelessNetworkMU.node[58].wlan.phy 	nbFramesWithInterferencePartial 	9069
scalar WirelessNetworkMU.node[58].wlan.phy 	nbFramesWithoutInterferencePartial 	4558
scalar WirelessNetworkMU.node[58].wlan.phy 	nbFramesWithInterferenceDropped 	41651
scalar WirelessNetworkMU.node[58].wlan.phy 	nbFramesWithoutInterferenceDropped 	5452
scalar WirelessNetworkMU.node[58].batteryStats 	nominal 	1187988120
attr unit  mW-s
scalar WirelessNetworkMU.node[58].batteryStats 	total 	19766.097971439
attr unit  mW-s
scalar WirelessNetworkMU.node[58].batteryStats 	lifetime 	-1
attr unit  s
scalar WirelessNetworkMU.node[58].batteryStats 	"Mean power consumption" 	61.769052798059
attr unit  mW
statistic WirelessNetworkMU.node[59].net 	endToEndDelayRTP:stats
field count 1
field mean 0.033628285776
field stddev -1.#IND
field sum 0.033628285776
field sqrsum 0.0011308616042323
field min 0.033628285776
field max 0.033628285776
attr interpolationmode  none
attr source  endToEndDelayRTP
attr title  "end-to-end delay RTP, stats"
attr unit  s
scalar WirelessNetworkMU.node[59].net 	paquetesRecibidosRTP:sum 	1
attr interpolationmode  none
attr source  recibidosRTP
attr title  "Paquetes recibidos RTP, sum"
scalar WirelessNetworkMU.node[59].net 	paquetesEnviadosWAM:sum 	7827
attr interpolationmode  none
attr source  enviadosWAM
attr title  "Paquetes enviados WAM, sum"
scalar WirelessNetworkMU.node[59].net 	paquetesEnviadosAMR:sum 	2
attr interpolationmode  none
attr source  enviadosAMR
attr title  "Paquetes enviados AMR, sum"
scalar WirelessNetworkMU.node[59].routing 	forwardedRTP:sum 	0
attr interpolationmode  none
attr source  fwdRTP
attr title  "Forwarded RTP, sum"
scalar WirelessNetworkMU.node[59].routing 	forwardedWAM:sum 	0
attr interpolationmode  none
attr source  fwdWAM
attr title  "Forwarded WAM, sum"
scalar WirelessNetworkMU.node[59].routing 	forwardedAMR:sum 	0
attr interpolationmode  none
attr source  fwdAMR
attr title  "Forwarded AMR, sum"
scalar WirelessNetworkMU.node[59].wlan.mac 	nbTxFrames 	10281
scalar WirelessNetworkMU.node[59].wlan.mac 	nbRxFrames 	1
scalar WirelessNetworkMU.node[59].wlan.mac 	nbDroppedFrames 	5434
scalar WirelessNetworkMU.node[59].wlan.mac 	nbMissedAcks 	8210
scalar WirelessNetworkMU.node[59].wlan.mac 	nbRecvdAcks 	2071
scalar WirelessNetworkMU.node[59].wlan.mac 	nbTxAcks 	0
scalar WirelessNetworkMU.node[59].wlan.mac 	nbDuplicates 	0
scalar WirelessNetworkMU.node[59].wlan.mac 	meanBackoff 	0.0032347826086958
scalar WirelessNetworkMU.node[59].wlan.mac 	nbBackoffs 	53268
scalar WirelessNetworkMU.node[59].wlan.mac 	backoffDurations 	172.31040000001
scalar WirelessNetworkMU.node[59].wlan.phy 	nbFramesWithInterference 	38988
scalar WirelessNetworkMU.node[59].wlan.phy 	nbFramesWithoutInterference 	49135
scalar WirelessNetworkMU.node[59].wlan.phy 	nbFramesWithInterferencePartial 	7003
scalar WirelessNetworkMU.node[59].wlan.phy 	nbFramesWithoutInterferencePartial 	4104
scalar WirelessNetworkMU.node[59].wlan.phy 	nbFramesWithInterferenceDropped 	37636
scalar WirelessNetworkMU.node[59].wlan.phy 	nbFramesWithoutInterferenceDropped 	5152
scalar WirelessNetworkMU.node[59].batteryStats 	nominal 	1187988120
attr unit  mW-s
scalar WirelessNetworkMU.node[59].batteryStats 	total 	19759.992705345
attr unit  mW-s
scalar WirelessNetworkMU.node[59].batteryStats 	lifetime 	-1
attr unit  s
scalar WirelessNetworkMU.node[59].batteryStats 	"Mean power consumption" 	61.749973842553
attr unit  mW
scalar WirelessNetworkMU.colectores[0].netColector 	hopCount:mean 	-1.#IND
attr interpolationmode  none
attr title  "hop count of arrived packets, mean"
scalar WirelessNetworkMU.colectores[0].netColector 	hopCount:max 	-1.#IND
attr interpolationmode  none
attr title  "hop count of arrived packets, max"
statistic WirelessNetworkMU.colectores[0].netColector 	endToEndDelayWAM:stats
field count 42721
field mean 1.8101988118264
field stddev 2.2302128853817
field sum 77333.503440035
field sqrsum 352471.86728483
field min 0.004064008841
field max 13.61416832103
attr interpolationmode  none
attr source  endToEndDelayWAM
attr title  "end-to-end delay WAM, stats"
attr unit  s
statistic WirelessNetworkMU.colectores[0].netColector 	endToEndDelayAMR:stats
field count 15
field mean 0.10064158007733
field stddev 0.17995224418683
field sum 1.50962370116
field sqrsum 0.60529025723719
field min 0.009952048227
field max 0.736553064485
attr interpolationmode  none
attr source  endToEndDelayAMR
attr title  "end-to-end delay AMR, stats"
attr unit  s
scalar WirelessNetworkMU.colectores[0].netColector 	paquetesRecibidosWAM:sum 	42721
attr interpolationmode  none
attr source  recibidosWAM
attr title  "Paquetes recibidos WAM, sum"
scalar WirelessNetworkMU.colectores[0].netColector 	paquetesRecibidosAMR:sum 	15
attr interpolationmode  none
attr source  recibidosAMR
attr title  "Paquetes recibidos AMR, sum"
scalar WirelessNetworkMU.colectores[0].netColector 	paquetesEnviadosRTP:sum 	2
attr interpolationmode  none
attr source  enviadosRTP
attr title  "Paquetes enviados RTP, sum"
scalar WirelessNetworkMU.colectores[0].routing 	forwardedRTP:sum 	0
attr interpolationmode  none
attr source  fwdRTP
attr title  "Forwarded RTP, sum"
scalar WirelessNetworkMU.colectores[0].routing 	forwardedWAM:sum 	0
attr interpolationmode  none
attr source  fwdWAM
attr title  "Forwarded WAM, sum"
scalar WirelessNetworkMU.colectores[0].routing 	forwardedAMR:sum 	0
attr interpolationmode  none
attr source  fwdAMR
attr title  "Forwarded AMR, sum"
scalar WirelessNetworkMU.colectores[0].wlan.mac 	nbTxFrames 	1
scalar WirelessNetworkMU.colectores[0].wlan.mac 	nbRxFrames 	42727
scalar WirelessNetworkMU.colectores[0].wlan.mac 	nbDroppedFrames 	1
scalar WirelessNetworkMU.colectores[0].wlan.mac 	nbMissedAcks 	0
scalar WirelessNetworkMU.colectores[0].wlan.mac 	nbRecvdAcks 	0
scalar WirelessNetworkMU.colectores[0].wlan.mac 	nbTxAcks 	44056
scalar WirelessNetworkMU.colectores[0].wlan.mac 	nbDuplicates 	1320
scalar WirelessNetworkMU.colectores[0].wlan.mac 	meanBackoff 	0.0033422222222222
scalar WirelessNetworkMU.colectores[0].wlan.mac 	nbBackoffs 	18
scalar WirelessNetworkMU.colectores[0].wlan.mac 	backoffDurations 	0.06016
scalar WirelessNetworkMU.colectores[0].wlan.phy 	nbFramesWithInterference 	33563
scalar WirelessNetworkMU.colectores[0].wlan.phy 	nbFramesWithoutInterference 	34232
scalar WirelessNetworkMU.colectores[0].wlan.phy 	nbFramesWithInterferencePartial 	5054
scalar WirelessNetworkMU.colectores[0].wlan.phy 	nbFramesWithoutInterferencePartial 	2892
scalar WirelessNetworkMU.colectores[0].wlan.phy 	nbFramesWithInterferenceDropped 	35236
scalar WirelessNetworkMU.colectores[0].wlan.phy 	nbFramesWithoutInterferenceDropped 	3742
scalar WirelessNetworkMU.colectores[0].batteryStats 	nominal 	1187988120
attr unit  mW-s
scalar WirelessNetworkMU.colectores[0].batteryStats 	total 	19781.122022629
attr unit  mW-s
scalar WirelessNetworkMU.colectores[0].batteryStats 	lifetime 	-1
attr unit  s
scalar WirelessNetworkMU.colectores[0].batteryStats 	"Mean power consumption" 	61.81600295547
attr unit  mW
scalar WirelessNetworkMU 	avgDelay:mean 	-1.#IND
attr source  endToEndDelay
attr title  "averageDelay, mean"
statistic WirelessNetworkMU 	avgDelay:stats
field count 0
field mean 0
field stddev -1.#IND
field sum 0
field sqrsum 0
field min 0
field max 0
attr source  endToEndDelay
attr title  "averageDelay, stats"
scalar WirelessNetworkMU 	traffic:count 	0
attr source  dataTraffic
attr title  "Data Traffic, count"
scalar WirelessNetworkMU 	traffic:sum 	0
attr source  dataTraffic
attr title  "Data Traffic, sum"
scalar WirelessNetworkMU 	overhead:count 	0
attr source  controlOverhead
attr title  "Control overhead, count"
scalar WirelessNetworkMU 	overhead:sum 	0
attr source  controlOverhead
attr title  "Control overhead, sum"
statistic WirelessNetworkMU 	sending:stats
field count 0
field mean 0
field stddev -1.#IND
field sum 0
field sqrsum 0
field min 0
field max 0
attr source  timeSending
attr title  "timeSending, stats"
statistic WirelessNetworkMU 	convergence:stats
field count 0
field mean 0
field stddev -1.#IND
field sum 0
field sqrsum 0
field min 0
field max 0
attr source  convergenceTime
attr title  "Convergence, stats"
scalar WirelessNetworkMU 	numOfBroadcastRecvd:sum 	0
attr source  broadcastRecvd
attr title  "Total Broadcast Recvd, sum"
scalar WirelessNetworkMU 	receivedPackets:sum 	0
attr source  pktsReceived
attr title  "numOfPacketsReceived, sum"
scalar WirelessNetworkMU 	sentPackets:sum 	0
attr source  pktsSent
attr title  "numOfPacketsSent, sum"
